
Generated by Molecular Materials Informatics

 24 27  0  0  0  0  0  0  0  0999 V2000
    0.8000   -1.3856    0.0000 C   0  0  0  0  0  0  0  0  0  0  0  0
    0.0000    0.0000    0.0000 C   0  0  0  0  0  0  0  0  0  0  0  0
    0.8000    1.3856    0.0000 N   0  0  0  0  0  0  0  0  0  0  0  0
    2.4000    1.3856    0.0000 C   0  0  0  0  0  0  0  0  0  0  0  0
    3.2000    0.0000    0.0000 C   0  0  0  0  0  0  0  0  0  0  0  0
    2.4000   -1.3856    0.0000 C   0  0  0  0  0  0  0  0  0  0  0  0
    4.8000    0.0000    0.0000 C   0  0  0  0  0  0  0  0  0  0  0  0
    5.6000    1.3856    0.0000 C   0  0  0  0  0  0  0  0  0  0  0  0
   -1.6000    0.0000    0.0000 C   0  0  0  0  0  0  0  0  0  0  0  0
   -2.4000   -1.3856    0.0000 C   0  0  0  0  0  0  0  0  0  0  0  0
   -4.0000   -4.1569    0.0000 N   0  0  0  0  0  0  0  0  0  0  0  0
   -2.4000   -4.1569    0.0000 C   0  0  0  0  0  0  0  0  0  0  0  0
   -1.6000   -2.7713    0.0000 C   0  0  0  0  0  0  0  0  0  0  0  0
   -2.4000    1.3856    0.0000 O   0  0  0  0  0  0  0  0  0  0  0  0
   -4.8000   -2.7713    0.0000 C   0  0  0  0  0  0  0  0  0  0  0  0
   -4.0000   -1.3856    0.0000 C   0  0  0  0  0  0  0  0  0  0  0  0
   -4.8000    0.0000    0.0000 C   0  0  0  0  0  0  0  0  0  0  0  0
   -6.4000    0.0000    0.0000 C   0  0  0  0  0  0  0  0  0  0  0  0
   -7.2000   -1.3856    0.0000 C   0  0  0  0  0  0  0  0  0  0  0  0
   -6.4000   -2.7713    0.0000 C   0  0  0  0  0  0  0  0  0  0  0  0
   -7.2000    1.3856    0.0000 O   0  0  0  0  0  0  0  0  0  0  0  0
   -8.8000    1.3856    0.0000 C   0  0  0  0  0  0  0  0  0  0  0  0
    2.4745   -0.1880    0.0000 C   0  0  0  0  0  0  0  0  0  0  0  0
    1.8745    0.8513    0.0000 C   0  0  0  0  0  0  0  0  0  0  0  0
  2  1  1  6  0  0  0
  1  6  1  0  0  0  0
  2  3  1  0  0  0  0
  2  9  1  0  0  0  0
  3  4  1  6  0  0  0
  3 24  1  0  0  0  0
  4  5  1  0  0  0  0
  5  6  1  0  0  0  0
  5  7  1  6  0  0  0
  6 23  1  1  0  0  0
  7  8  2  0  0  0  0
  9 10  1  0  0  0  0
  9 14  1  6  0  0  0
 10 13  2  0  0  0  0
 10 16  1  0  0  0  0
 11 12  2  0  0  0  0
 11 15  1  0  0  0  0
 12 13  1  0  0  0  0
 15 16  1  0  0  0  0
 15 20  2  0  0  0  0
 16 17  2  0  0  0  0
 17 18  1  0  0  0  0
 18 19  2  0  0  0  0
 18 21  1  0  0  0  0
 19 20  1  0  0  0  0
 21 22  1  0  0  0  0
 23 24  1  0  0  0  0
M  END
> <Acceptable>
false

> <IC50>
0.6937

$$$$

Generated by Molecular Materials Informatics

 29 31  0  0  0  0  0  0  0  0999 V2000
   -2.4000    1.3856    0.0000 C   0  0  0  0  0  0  0  0  0  0  0  0
   -3.2000    0.0000    0.0000 N   0  0  0  0  0  0  0  0  0  0  0  0
   -2.4000   -1.3856    0.0000 C   0  0  0  0  0  0  0  0  0  0  0  0
   -0.8000   -1.3856    0.0000 C   0  0  0  0  0  0  0  0  0  0  0  0
    0.0000    0.0000    0.0000 N   0  0  0  0  0  0  0  0  0  0  0  0
   -0.8000    1.3856    0.0000 C   0  0  0  0  0  0  0  0  0  0  0  0
   -4.8000    0.0000    0.0000 C   0  0  0  0  0  0  0  0  0  0  0  0
   -5.6000    1.3856    0.0000 C   0  0  0  0  0  0  0  0  0  0  0  0
   -7.2000    1.3856    0.0000 C   0  0  0  0  0  0  0  0  0  0  0  0
   -8.0000    0.0000    0.0000 C   0  0  0  0  0  0  0  0  0  0  0  0
   -7.2000   -1.3856    0.0000 C   0  0  0  0  0  0  0  0  0  0  0  0
   -5.6000   -1.3856    0.0000 N   0  0  0  0  0  0  0  0  0  0  0  0
    1.6000    0.0000    0.0000 C   0  0  0  0  0  0  0  0  0  0  0  0
    2.4000   -1.3856    0.0000 N   0  0  0  0  0  0  0  0  0  0  0  0
    2.4000    1.3856    0.0000 N   0  0  0  0  0  0  0  0  0  0  0  0
    4.0000   -1.3856    0.0000 C   0  0  0  0  0  0  0  0  0  0  0  0
    4.8000   -2.7713    0.0000 C   0  0  0  0  0  0  0  0  0  0  0  0
    6.4000   -2.7713    0.0000 C   0  0  0  0  0  0  0  0  0  0  0  0
    7.2000   -1.3856    0.0000 C   0  0  0  0  0  0  0  0  0  0  0  0
    6.4000    0.0000    0.0000 C   0  0  0  0  0  0  0  0  0  0  0  0
    4.8000    0.0000    0.0000 C   0  0  0  0  0  0  0  0  0  0  0  0
    8.8000   -1.3856    0.0000 C   0  0  0  0  0  0  0  0  0  0  0  0
    9.6000    0.0000    0.0000 C   0  0  0  0  0  0  0  0  0  0  0  0
    9.6000   -2.7713    0.0000 C   0  0  0  0  0  0  0  0  0  0  0  0
   10.4000   -1.3856    0.0000 C   0  0  0  0  0  0  0  0  0  0  0  0
   -4.8000    2.7713    0.0000 F   0  0  0  0  0  0  0  0  0  0  0  0
    0.0000    2.7713    0.0000 C   0  0  0  0  0  0  0  0  0  0  0  0
    4.0000    1.3856    0.0000 C   0  0  0  0  0  0  0  0  0  0  0  0
    5.6000    1.3856    0.0000 N   0  0  0  0  0  0  0  0  0  0  0  0
  1  2  1  0  0  0  0
  1  6  1  0  0  0  0
  2  3  1  0  0  0  0
  2  7  1  0  0  0  0
  3  4  1  0  0  0  0
  4  5  1  0  0  0  0
  5  6  1  0  0  0  0
  5 13  1  0  0  0  0
  6 27  1  1  0  0  0
  7  8  1  0  0  0  0
  7 12  2  0  0  0  0
  8  9  2  0  0  0  0
  8 26  1  0  0  0  0
  9 10  1  0  0  0  0
 10 11  2  0  0  0  0
 11 12  1  0  0  0  0
 13 14  1  0  0  0  0
 13 15  2  0  0  0  0
 14 16  1  0  0  0  0
 15 28  1  0  0  0  0
 16 17  1  0  0  0  0
 16 21  2  0  0  0  0
 17 18  2  0  0  0  0
 18 19  1  0  0  0  0
 19 20  2  0  0  0  0
 19 22  1  0  0  0  0
 20 21  1  0  0  0  0
 22 23  1  0  0  0  0
 22 24  1  0  0  0  0
 22 25  1  0  0  0  0
 28 29  3  0  0  0  0
M  END
> <Acceptable>
false

> <IC50>
1

$$$$

Generated by Molecular Materials Informatics

 31 35  0  0  0  0  0  0  0  0999 V2000
    1.5912    0.1672    0.0000 C   0  0  0  0  0  0  0  0  0  0  0  0
    1.9239    1.7323    0.0000 C   0  0  0  0  0  0  0  0  0  0  0  0
    0.5383    2.5323    0.0000 N   0  0  0  0  0  0  0  0  0  0  0  0
   -0.6508    1.4617    0.0000 C   0  0  0  0  0  0  0  0  0  0  0  0
    0.0000    0.0000    0.0000 C   0  0  0  0  0  0  0  0  0  0  0  0
    0.0000   -2.7713    0.0000 C   0  0  0  0  0  0  0  0  0  0  0  0
   -1.6000   -2.7713    0.0000 N   0  0  0  0  0  0  0  0  0  0  0  0
   -2.4000   -1.3856    0.0000 C   0  0  0  0  0  0  0  0  0  0  0  0
   -1.6000    0.0000    0.0000 C   0  0  0  0  0  0  0  0  0  0  0  0
    0.8000   -1.3856    0.0000 C   0  0  0  0  0  0  0  0  0  0  0  0
   -2.2158    1.7943    0.0000 O   0  0  0  0  0  0  0  0  0  0  0  0
    2.6618   -1.0218    0.0000 C   0  0  0  0  0  0  0  0  0  0  0  0
   -2.4000   -4.1569    0.0000 C   0  0  0  0  0  0  0  0  0  0  0  0
   -3.6257   -3.1285    0.0000 C   0  0  0  0  0  0  0  0  0  0  0  0
   -5.1292   -3.6757    0.0000 C   0  0  0  0  0  0  0  0  0  0  0  0
   -5.4070   -5.2514    0.0000 C   0  0  0  0  0  0  0  0  0  0  0  0
   -4.1813   -6.2798    0.0000 C   0  0  0  0  0  0  0  0  0  0  0  0
   -2.6778   -5.7326    0.0000 C   0  0  0  0  0  0  0  0  0  0  0  0
   -0.8965   -4.7042    0.0000 C   0  0  0  0  0  0  0  0  0  0  0  0
   -0.6187   -6.2798    0.0000 C   0  0  0  0  0  0  0  0  0  0  0  0
    0.8849   -6.8271    0.0000 C   0  0  0  0  0  0  0  0  0  0  0  0
    2.1105   -5.7986    0.0000 C   0  0  0  0  0  0  0  0  0  0  0  0
    1.8327   -4.2229    0.0000 C   0  0  0  0  0  0  0  0  0  0  0  0
    0.3292   -3.6757    0.0000 C   0  0  0  0  0  0  0  0  0  0  0  0
    2.1674   -2.5435    0.0000 C   0  0  0  0  0  0  0  0  0  0  0  0
    3.2380   -3.7325    0.0000 C   0  0  0  0  0  0  0  0  0  0  0  0
    4.8031   -3.3999    0.0000 C   0  0  0  0  0  0  0  0  0  0  0  0
    5.2975   -1.8782    0.0000 C   0  0  0  0  0  0  0  0  0  0  0  0
    4.2269   -0.6891    0.0000 C   0  0  0  0  0  0  0  0  0  0  0  0
    5.8737   -4.5889    0.0000 F   0  0  0  0  0  0  0  0  0  0  0  0
    3.6140   -6.3459    0.0000 F   0  0  0  0  0  0  0  0  0  0  0  0
  1  2  1  0  0  0  0
  1  5  1  0  0  0  0
  1 12  1  6  0  0  0
  2  3  1  0  0  0  0
  3  4  1  0  0  0  0
  4  5  1  0  0  0  0
  4 11  2  0  0  0  0
  5  9  1  0  0  0  0
  5 10  1  6  0  0  0
  6  7  1  0  0  0  0
  6 10  1  0  0  0  0
  7  8  1  0  0  0  0
  7 13  1  1  0  0  0
  8  9  1  0  0  0  0
 12 25  1  0  0  0  0
 12 29  2  0  0  0  0
 13 14  1  0  0  0  0
 13 18  1  0  0  0  0
 13 19  1  0  0  0  0
 14 15  1  0  0  0  0
 15 16  1  0  0  0  0
 16 17  1  0  0  0  0
 17 18  1  0  0  0  0
 19 20  1  0  0  0  0
 19 24  2  0  0  0  0
 20 21  2  0  0  0  0
 21 22  1  0  0  0  0
 22 23  2  0  0  0  0
 22 31  1  0  0  0  0
 23 24  1  0  0  0  0
 25 26  2  0  0  0  0
 26 27  1  0  0  0  0
 27 28  2  0  0  0  0
 27 30  1  0  0  0  0
 28 29  1  0  0  0  0
M  END
> <Acceptable>
false

> <IC50>
1.3

$$$$

Generated by Molecular Materials Informatics

 15 17  0  0  0  0  0  0  0  0999 V2000
    4.7650   -0.3327    0.0000 C   0  0  0  0  0  0  0  0  0  0  0  0
    3.9650   -1.7183    0.0000 C   0  0  0  0  0  0  0  0  0  0  0  0
    2.3650   -1.7183    0.0000 N   0  0  0  0  0  0  0  0  0  0  0  0
    3.9650    1.0530    0.0000 C   0  0  0  0  0  0  0  0  0  0  0  0
    2.3650    1.0530    0.0000 C   0  0  0  0  0  0  0  0  0  0  0  0
    1.5650   -0.3327    0.0000 C   0  0  0  0  0  0  0  0  0  0  0  0
    1.2944    2.2420    0.0000 C   0  0  0  0  0  0  0  0  0  0  0  0
   -0.1672    1.5912    0.0000 C   0  0  0  0  0  0  0  0  0  0  0  0
    0.0000    0.0000    0.0000 N   0  0  0  0  0  0  0  0  0  0  0  0
   -1.2944   -0.9405    0.0000 C   0  0  0  0  0  0  0  0  0  0  0  0
   -2.7561   -0.2897    0.0000 C   0  0  0  0  0  0  0  0  0  0  0  0
   -2.9233    1.3016    0.0000 N   0  0  0  0  0  0  0  0  0  0  0  0
   -1.6289    2.2420    0.0000 C   0  0  0  0  0  0  0  0  0  0  0  0
   -1.1272   -2.5317    0.0000 C   0  0  0  0  0  0  0  0  0  0  0  0
    4.7650   -3.1039    0.0000 C   0  0  0  0  0  0  0  0  0  0  0  0
  1  2  2  0  0  0  0
  1  4  1  0  0  0  0
  2  3  1  0  0  0  0
  2 15  1  0  0  0  0
  3  6  2  0  0  0  0
  4  5  2  0  0  0  0
  5  6  1  0  0  0  0
  5  7  1  0  0  0  0
  6  9  1  0  0  0  0
  7  8  1  0  0  0  0
  8  9  1  0  0  0  0
  8 13  1  1  0  0  0
  9 10  1  0  0  0  0
 10 11  1  0  0  0  0
 10 14  1  6  0  0  0
 11 12  1  0  0  0  0
 12 13  1  0  0  0  0
M  END
> <Acceptable>
false

> <IC50>
21

$$$$

Generated by Molecular Materials Informatics

 34 38  0  0  0  0  0  0  0  0999 V2000
  -10.7760   -0.8000    0.0000 N   0  0  0  0  0  0  0  0  0  0  0  0
  -10.7760    0.8000    0.0000 C   0  0  0  0  0  0  0  0  0  0  0  0
   -9.3903    1.6000    0.0000 C   0  0  0  0  0  0  0  0  0  0  0  0
   -8.0047    0.8000    0.0000 N   0  0  0  0  0  0  0  0  0  0  0  0
   -8.0047   -0.8000    0.0000 C   0  0  0  0  0  0  0  0  0  0  0  0
   -9.3903   -1.6000    0.0000 C   0  0  0  0  0  0  0  0  0  0  0  0
  -12.1616   -1.6000    0.0000 C   0  0  0  0  0  0  0  0  0  0  0  0
   -6.6191    1.6000    0.0000 C   0  0  0  0  0  0  0  0  0  0  0  0
   -5.2334    0.8000    0.0000 C   0  0  0  0  0  0  0  0  0  0  0  0
   -3.8478    1.6000    0.0000 C   0  0  0  0  0  0  0  0  0  0  0  0
   -3.8478   -1.6000    0.0000 C   0  0  0  0  0  0  0  0  0  0  0  0
   -5.2334   -0.8000    0.0000 C   0  0  0  0  0  0  0  0  0  0  0  0
   -2.4621   -0.8000    0.0000 C   0  0  0  0  0  0  0  0  0  0  0  0
   -2.4621    0.8000    0.0000 C   0  0  0  0  0  0  0  0  0  0  0  0
   -0.9405    1.2944    0.0000 C   0  0  0  0  0  0  0  0  0  0  0  0
    0.0000   -2.5889    0.0000 N   0  0  0  0  0  0  0  0  0  0  0  0
   -0.9405   -1.2944    0.0000 C   0  0  0  0  0  0  0  0  0  0  0  0
    0.0000    0.0000    0.0000 C   0  0  0  0  0  0  0  0  0  0  0  0
    1.5217   -0.4944    0.0000 C   0  0  0  0  0  0  0  0  0  0  0  0
    1.5217   -2.0944    0.0000 N   0  0  0  0  0  0  0  0  0  0  0  0
   -0.4460    2.8161    0.0000 O   0  0  0  0  0  0  0  0  0  0  0  0
    2.8161    0.4460    0.0000 C   0  0  0  0  0  0  0  0  0  0  0  0
    2.8161    2.0460    0.0000 C   0  0  0  0  0  0  0  0  0  0  0  0
    4.3378    2.5405    0.0000 S   0  0  0  0  0  0  0  0  0  0  0  0
    5.2783    1.2460    0.0000 C   0  0  0  0  0  0  0  0  0  0  0  0
    4.3378   -0.0484    0.0000 C   0  0  0  0  0  0  0  0  0  0  0  0
    6.8783    1.2460    0.0000 C   0  0  0  0  0  0  0  0  0  0  0  0
    8.4783    1.2460    0.0000 C   0  0  0  0  0  0  0  0  0  0  0  0
   10.0783    1.2460    0.0000 C   0  0  0  0  0  0  0  0  0  0  0  0
   10.8783    2.6317    0.0000 O   0  0  0  0  0  0  0  0  0  0  0  0
   12.4783    2.6317    0.0000 C   0  0  0  0  0  0  0  0  0  0  0  0
   13.2783    4.0173    0.0000 C   0  0  0  0  0  0  0  0  0  0  0  0
   14.8783    4.0173    0.0000 O   0  0  0  0  0  0  0  0  0  0  0  0
   15.6783    5.4030    0.0000 C   0  0  0  0  0  0  0  0  0  0  0  0
  1  2  1  0  0  0  0
  1  6  1  0  0  0  0
  1  7  1  6  0  0  0
  2  3  1  0  0  0  0
  3  4  1  0  0  0  0
  4  5  1  0  0  0  0
  4  8  1  1  0  0  0
  5  6  1  0  0  0  0
  8  9  1  0  0  0  0
  9 10  1  0  0  0  0
  9 12  2  0  0  0  0
 10 14  2  0  0  0  0
 11 12  1  0  0  0  0
 11 13  2  0  0  0  0
 13 14  1  0  0  0  0
 13 17  1  0  0  0  0
 14 15  1  0  0  0  0
 15 18  1  0  0  0  0
 15 21  2  0  0  0  0
 16 17  1  0  0  0  0
 16 20  1  0  0  0  0
 17 18  2  0  0  0  0
 18 19  1  0  0  0  0
 19 20  2  0  0  0  0
 19 22  1  0  0  0  0
 22 23  2  0  0  0  0
 22 26  1  0  0  0  0
 23 24  1  0  0  0  0
 24 25  1  0  0  0  0
 25 26  2  0  0  0  0
 25 27  1  0  0  0  0
 27 28  3  0  0  0  0
 28 29  1  0  0  0  0
 29 30  1  0  0  0  0
 30 31  1  0  0  0  0
 31 32  1  0  0  0  0
 32 33  1  0  0  0  0
 33 34  1  0  0  0  0
M  END
> <Acceptable>
false

> <IC50>
5.3

$$$$

Generated by Molecular Materials Informatics

 36 41  0  0  0  0  0  0  0  0999 V2000
  -10.1157   -2.7486    0.0000 O   0  0  0  0  0  0  0  0  0  0  0  0
  -11.3047   -3.8192    0.0000 C   0  0  0  0  0  0  0  0  0  0  0  0
  -12.8264   -3.3248    0.0000 C   0  0  0  0  0  0  0  0  0  0  0  0
  -14.0154   -4.3954    0.0000 C   0  0  0  0  0  0  0  0  0  0  0  0
  -13.6828   -5.9604    0.0000 C   0  0  0  0  0  0  0  0  0  0  0  0
  -12.1611   -6.4549    0.0000 C   0  0  0  0  0  0  0  0  0  0  0  0
  -10.9720   -5.3842    0.0000 C   0  0  0  0  0  0  0  0  0  0  0  0
   -8.5940   -3.2430    0.0000 C   0  0  0  0  0  0  0  0  0  0  0  0
   -7.4049   -2.1724    0.0000 C   0  0  0  0  0  0  0  0  0  0  0  0
   -6.2159   -1.1018    0.0000 C   0  0  0  0  0  0  0  0  0  0  0  0
   -5.0269   -0.0312    0.0000 C   0  0  0  0  0  0  0  0  0  0  0  0
   -3.4618   -0.3639    0.0000 C   0  0  0  0  0  0  0  0  0  0  0  0
   -2.6618    1.0218    0.0000 C   0  0  0  0  0  0  0  0  0  0  0  0
   -3.7325    2.2108    0.0000 C   0  0  0  0  0  0  0  0  0  0  0  0
   -5.1941    1.5600    0.0000 S   0  0  0  0  0  0  0  0  0  0  0  0
   -1.0706    1.1890    0.0000 C   0  0  0  0  0  0  0  0  0  0  0  0
   -0.2706    2.5747    0.0000 N   0  0  0  0  0  0  0  0  0  0  0  0
    1.2944    2.2420    0.0000 N   0  0  0  0  0  0  0  0  0  0  0  0
    0.0000    0.0000    0.0000 C   0  0  0  0  0  0  0  0  0  0  0  0
    1.4617    0.6508    0.0000 C   0  0  0  0  0  0  0  0  0  0  0  0
    0.1672   -1.5912    0.0000 C   0  0  0  0  0  0  0  0  0  0  0  0
    1.7323   -1.9239    0.0000 C   0  0  0  0  0  0  0  0  0  0  0  0
    2.5323   -0.5383    0.0000 C   0  0  0  0  0  0  0  0  0  0  0  0
    4.1323   -0.5383    0.0000 C   0  0  0  0  0  0  0  0  0  0  0  0
    4.9323   -1.9239    0.0000 C   0  0  0  0  0  0  0  0  0  0  0  0
    4.1323   -3.3095    0.0000 C   0  0  0  0  0  0  0  0  0  0  0  0
    2.5323   -3.3095    0.0000 C   0  0  0  0  0  0  0  0  0  0  0  0
    4.9323   -4.6952    0.0000 C   0  0  0  0  0  0  0  0  0  0  0  0
    6.5323   -4.6952    0.0000 N   0  0  0  0  0  0  0  0  0  0  0  0
    7.3323   -6.0808    0.0000 C   0  0  0  0  0  0  0  0  0  0  0  0
    8.9323   -6.0808    0.0000 C   0  0  0  0  0  0  0  0  0  0  0  0
    9.7323   -4.6952    0.0000 N   0  0  0  0  0  0  0  0  0  0  0  0
    8.9323   -3.3095    0.0000 C   0  0  0  0  0  0  0  0  0  0  0  0
    7.3323   -3.3095    0.0000 C   0  0  0  0  0  0  0  0  0  0  0  0
    6.5323   -7.4665    0.0000 O   0  0  0  0  0  0  0  0  0  0  0  0
   11.3323   -4.6952    0.0000 C   0  0  0  0  0  0  0  0  0  0  0  0
  1  2  1  0  0  0  0
  1  8  1  0  0  0  0
  2  3  1  0  0  0  0
  2  7  2  0  0  0  0
  3  4  2  0  0  0  0
  4  5  1  0  0  0  0
  5  6  2  0  0  0  0
  6  7  1  0  0  0  0
  8  9  1  0  0  0  0
  9 10  3  0  0  0  0
 10 11  1  0  0  0  0
 11 12  2  0  0  0  0
 11 15  1  0  0  0  0
 12 13  1  0  0  0  0
 13 14  2  0  0  0  0
 13 16  1  0  0  0  0
 14 15  1  0  0  0  0
 16 17  2  0  0  0  0
 16 19  1  0  0  0  0
 17 18  1  0  0  0  0
 18 20  1  0  0  0  0
 19 20  2  0  0  0  0
 19 21  1  0  0  0  0
 20 23  1  0  0  0  0
 21 22  1  0  0  0  0
 22 23  1  0  0  0  0
 22 27  2  0  0  0  0
 23 24  2  0  0  0  0
 24 25  1  0  0  0  0
 25 26  2  0  0  0  0
 26 27  1  0  0  0  0
 26 28  1  0  0  0  0
 28 29  1  0  0  0  0
 29 30  1  0  0  0  0
 29 34  1  0  0  0  0
 30 31  1  0  0  0  0
 30 35  2  0  0  0  0
 31 32  1  0  0  0  0
 32 33  1  0  0  0  0
 32 36  1  6  0  0  0
 33 34  1  0  0  0  0
M  END
> <Acceptable>
true

> <IC50>
53

$$$$

Generated by Molecular Materials Informatics

 33 38  0  0  0  0  0  0  0  0999 V2000
  -10.1157   -2.7486    0.0000 O   0  0  0  0  0  0  0  0  0  0  0  0
  -11.3047   -3.8192    0.0000 C   0  0  0  0  0  0  0  0  0  0  0  0
  -12.8264   -3.3248    0.0000 C   0  0  0  0  0  0  0  0  0  0  0  0
  -14.0154   -4.3954    0.0000 C   0  0  0  0  0  0  0  0  0  0  0  0
  -13.6828   -5.9604    0.0000 C   0  0  0  0  0  0  0  0  0  0  0  0
  -12.1611   -6.4549    0.0000 C   0  0  0  0  0  0  0  0  0  0  0  0
  -10.9720   -5.3842    0.0000 C   0  0  0  0  0  0  0  0  0  0  0  0
   -8.5940   -3.2430    0.0000 C   0  0  0  0  0  0  0  0  0  0  0  0
   -7.4049   -2.1724    0.0000 C   0  0  0  0  0  0  0  0  0  0  0  0
   -6.2159   -1.1018    0.0000 C   0  0  0  0  0  0  0  0  0  0  0  0
   -5.0269   -0.0312    0.0000 C   0  0  0  0  0  0  0  0  0  0  0  0
   -3.4618   -0.3639    0.0000 C   0  0  0  0  0  0  0  0  0  0  0  0
   -2.6618    1.0218    0.0000 C   0  0  0  0  0  0  0  0  0  0  0  0
   -3.7325    2.2108    0.0000 C   0  0  0  0  0  0  0  0  0  0  0  0
   -5.1941    1.5600    0.0000 S   0  0  0  0  0  0  0  0  0  0  0  0
   -1.0706    1.1890    0.0000 C   0  0  0  0  0  0  0  0  0  0  0  0
   -0.2706    2.5747    0.0000 N   0  0  0  0  0  0  0  0  0  0  0  0
    1.2944    2.2420    0.0000 N   0  0  0  0  0  0  0  0  0  0  0  0
    0.0000    0.0000    0.0000 C   0  0  0  0  0  0  0  0  0  0  0  0
    1.4617    0.6508    0.0000 C   0  0  0  0  0  0  0  0  0  0  0  0
    0.1672   -1.5912    0.0000 C   0  0  0  0  0  0  0  0  0  0  0  0
    1.7323   -1.9239    0.0000 C   0  0  0  0  0  0  0  0  0  0  0  0
    2.5323   -0.5383    0.0000 C   0  0  0  0  0  0  0  0  0  0  0  0
    4.1323   -0.5383    0.0000 C   0  0  0  0  0  0  0  0  0  0  0  0
    4.9323   -1.9239    0.0000 C   0  0  0  0  0  0  0  0  0  0  0  0
    4.1323   -3.3095    0.0000 C   0  0  0  0  0  0  0  0  0  0  0  0
    2.5323   -3.3095    0.0000 C   0  0  0  0  0  0  0  0  0  0  0  0
    4.9323   -4.6952    0.0000 C   0  0  0  0  0  0  0  0  0  0  0  0
    6.5323   -4.6952    0.0000 N   0  0  0  0  0  0  0  0  0  0  0  0
    7.4727   -5.9896    0.0000 N   0  0  0  0  0  0  0  0  0  0  0  0
    8.9944   -5.4952    0.0000 C   0  0  0  0  0  0  0  0  0  0  0  0
    8.9944   -3.8952    0.0000 N   0  0  0  0  0  0  0  0  0  0  0  0
    7.4727   -3.4007    0.0000 C   0  0  0  0  0  0  0  0  0  0  0  0
  1  2  1  0  0  0  0
  1  8  1  0  0  0  0
  2  3  1  0  0  0  0
  2  7  2  0  0  0  0
  3  4  2  0  0  0  0
  4  5  1  0  0  0  0
  5  6  2  0  0  0  0
  6  7  1  0  0  0  0
  8  9  1  0  0  0  0
  9 10  3  0  0  0  0
 10 11  1  0  0  0  0
 11 12  2  0  0  0  0
 11 15  1  0  0  0  0
 12 13  1  0  0  0  0
 13 14  2  0  0  0  0
 13 16  1  0  0  0  0
 14 15  1  0  0  0  0
 16 17  2  0  0  0  0
 16 19  1  0  0  0  0
 17 18  1  0  0  0  0
 18 20  1  0  0  0  0
 19 20  2  0  0  0  0
 19 21  1  0  0  0  0
 20 23  1  0  0  0  0
 21 22  1  0  0  0  0
 22 23  1  0  0  0  0
 22 27  2  0  0  0  0
 23 24  2  0  0  0  0
 24 25  1  0  0  0  0
 25 26  2  0  0  0  0
 26 27  1  0  0  0  0
 26 28  1  0  0  0  0
 28 29  1  0  0  0  0
 29 30  1  0  0  0  0
 29 33  1  0  0  0  0
 30 31  2  0  0  0  0
 31 32  1  0  0  0  0
 32 33  2  0  0  0  0
M  END
> <Acceptable>
false

> <IC50>
1.7

$$$$

Generated by Molecular Materials Informatics

 31 35  0  0  0  0  0  0  0  0999 V2000
   -5.2334    0.8000    0.0000 C   0  0  0  0  0  0  0  0  0  0  0  0
   -5.2334   -0.8000    0.0000 C   0  0  0  0  0  0  0  0  0  0  0  0
   -3.8478   -1.6000    0.0000 C   0  0  0  0  0  0  0  0  0  0  0  0
   -3.8478    1.6000    0.0000 C   0  0  0  0  0  0  0  0  0  0  0  0
   -2.4621    0.8000    0.0000 C   0  0  0  0  0  0  0  0  0  0  0  0
   -2.4621   -0.8000    0.0000 C   0  0  0  0  0  0  0  0  0  0  0  0
   -0.9405   -1.2944    0.0000 C   0  0  0  0  0  0  0  0  0  0  0  0
    0.0000    2.5889    0.0000 N   0  0  0  0  0  0  0  0  0  0  0  0
   -0.9405    1.2944    0.0000 C   0  0  0  0  0  0  0  0  0  0  0  0
    0.0000    0.0000    0.0000 C   0  0  0  0  0  0  0  0  0  0  0  0
    1.5217    0.4944    0.0000 C   0  0  0  0  0  0  0  0  0  0  0  0
    1.5217    2.0944    0.0000 N   0  0  0  0  0  0  0  0  0  0  0  0
    2.8161   -0.4460    0.0000 C   0  0  0  0  0  0  0  0  0  0  0  0
    2.8161   -2.0460    0.0000 C   0  0  0  0  0  0  0  0  0  0  0  0
    4.3378   -2.5405    0.0000 S   0  0  0  0  0  0  0  0  0  0  0  0
    5.2783   -1.2460    0.0000 C   0  0  0  0  0  0  0  0  0  0  0  0
    4.3378    0.0484    0.0000 C   0  0  0  0  0  0  0  0  0  0  0  0
    6.8783   -1.2460    0.0000 C   0  0  0  0  0  0  0  0  0  0  0  0
    8.4783   -1.2460    0.0000 C   0  0  0  0  0  0  0  0  0  0  0  0
   10.0783   -1.2460    0.0000 C   0  0  0  0  0  0  0  0  0  0  0  0
   -6.6191    1.6000    0.0000 C   0  0  0  0  0  0  0  0  0  0  0  0
   -8.0047    0.8000    0.0000 N   0  0  0  0  0  0  0  0  0  0  0  0
   -9.4664    1.4508    0.0000 N   0  0  0  0  0  0  0  0  0  0  0  0
  -10.5370    0.2617    0.0000 C   0  0  0  0  0  0  0  0  0  0  0  0
   -9.7370   -1.1239    0.0000 N   0  0  0  0  0  0  0  0  0  0  0  0
   -8.1720   -0.7912    0.0000 C   0  0  0  0  0  0  0  0  0  0  0  0
   10.8783   -2.6317    0.0000 O   0  0  0  0  0  0  0  0  0  0  0  0
   12.4783   -2.6317    0.0000 C   0  0  0  0  0  0  0  0  0  0  0  0
   13.2783   -4.0173    0.0000 C   0  0  0  0  0  0  0  0  0  0  0  0
   14.8783   -4.0173    0.0000 O   0  0  0  0  0  0  0  0  0  0  0  0
   15.6783   -5.4030    0.0000 C   0  0  0  0  0  0  0  0  0  0  0  0
  1  2  2  0  0  0  0
  1  4  1  0  0  0  0
  1 21  1  0  0  0  0
  2  3  1  0  0  0  0
  3  6  2  0  0  0  0
  4  5  2  0  0  0  0
  5  6  1  0  0  0  0
  5  9  1  0  0  0  0
  6  7  1  0  0  0  0
  7 10  1  0  0  0  0
  8  9  1  0  0  0  0
  8 12  1  0  0  0  0
  9 10  2  0  0  0  0
 10 11  1  0  0  0  0
 11 12  2  0  0  0  0
 11 13  1  0  0  0  0
 13 14  2  0  0  0  0
 13 17  1  0  0  0  0
 14 15  1  0  0  0  0
 15 16  1  0  0  0  0
 16 17  2  0  0  0  0
 16 18  1  0  0  0  0
 18 19  3  0  0  0  0
 19 20  1  0  0  0  0
 20 27  1  0  0  0  0
 21 22  1  0  0  0  0
 22 23  1  0  0  0  0
 22 26  1  0  0  0  0
 23 24  2  0  0  0  0
 24 25  1  0  0  0  0
 25 26  2  0  0  0  0
 27 28  1  0  0  0  0
 28 29  1  0  0  0  0
 29 30  1  0  0  0  0
 30 31  1  0  0  0  0
M  END
> <Acceptable>
false

> <IC50>
11.6

$$$$

Generated by Molecular Materials Informatics

 21 23  0  0  0  0  0  0  0  0999 V2000
   -5.5426   -3.2000    0.0000 F   0  0  0  0  0  0  0  0  0  0  0  0
    5.5426   -3.2000    0.0000 F   0  0  0  0  0  0  0  0  0  0  0  0
    0.0000    1.6000    0.0000 N   0  0  0  0  0  0  0  0  0  0  0  0
    0.0000    4.8000    0.0000 N   0  0  0  0  0  0  0  0  0  0  0  0
    0.0000    0.0000    0.0000 C   0  0  0  0  0  0  0  0  0  0  0  0
   -1.3856   -0.8000    0.0000 C   0  0  0  0  0  0  0  0  0  0  0  0
    1.3856   -0.8000    0.0000 C   0  0  0  0  0  0  0  0  0  0  0  0
   -2.7713    0.0000    0.0000 C   0  0  0  0  0  0  0  0  0  0  0  0
    1.3856   -2.4000    0.0000 C   0  0  0  0  0  0  0  0  0  0  0  0
   -1.3856   -2.4000    0.0000 C   0  0  0  0  0  0  0  0  0  0  0  0
    2.7713    0.0000    0.0000 C   0  0  0  0  0  0  0  0  0  0  0  0
    1.3856    2.4000    0.0000 C   0  0  0  0  0  0  0  0  0  0  0  0
   -1.3856    2.4000    0.0000 C   0  0  0  0  0  0  0  0  0  0  0  0
   -4.1569   -2.4000    0.0000 C   0  0  0  0  0  0  0  0  0  0  0  0
    4.1569   -2.4000    0.0000 C   0  0  0  0  0  0  0  0  0  0  0  0
   -4.1569   -0.8000    0.0000 C   0  0  0  0  0  0  0  0  0  0  0  0
    2.7713   -3.2000    0.0000 C   0  0  0  0  0  0  0  0  0  0  0  0
   -2.7713   -3.2000    0.0000 C   0  0  0  0  0  0  0  0  0  0  0  0
    4.1569   -0.8000    0.0000 C   0  0  0  0  0  0  0  0  0  0  0  0
    1.3856    4.0000    0.0000 C   0  0  0  0  0  0  0  0  0  0  0  0
   -1.3856    4.0000    0.0000 C   0  0  0  0  0  0  0  0  0  0  0  0
  1 14  1  0  0  0  0
  2 15  1  0  0  0  0
  3  5  1  0  0  0  0
  3 12  1  0  0  0  0
  3 13  1  0  0  0  0
  4 20  1  0  0  0  0
  4 21  1  0  0  0  0
  5  6  1  0  0  0  0
  5  7  1  0  0  0  0
  6  8  2  0  0  0  0
  6 10  1  0  0  0  0
  7  9  2  0  0  0  0
  7 11  1  0  0  0  0
  8 16  1  0  0  0  0
  9 17  1  0  0  0  0
 10 18  2  0  0  0  0
 11 19  2  0  0  0  0
 12 20  1  0  0  0  0
 13 21  1  0  0  0  0
 14 16  2  0  0  0  0
 14 18  1  0  0  0  0
 15 17  2  0  0  0  0
 15 19  1  0  0  0  0
M  END
> <Acceptable>
false

> <IC50>
1.6

$$$$

Generated by Molecular Materials Informatics

 35 38  0  0  0  0  0  0  0  0999 V2000
   -9.6000    0.0000    0.0000 C   0  0  0  0  0  0  0  0  0  0  0  0
  -10.4000   -1.3856    0.0000 N   0  0  0  0  0  0  0  0  0  0  0  0
   -9.6000   -2.7713    0.0000 C   0  0  0  0  0  0  0  0  0  0  0  0
   -8.0000   -2.7713    0.0000 C   0  0  0  0  0  0  0  0  0  0  0  0
   -7.2000   -1.3856    0.0000 C   0  0  0  0  0  0  0  0  0  0  0  0
   -8.0000    0.0000    0.0000 C   0  0  0  0  0  0  0  0  0  0  0  0
   -5.6000   -1.3856    0.0000 C   0  0  0  0  0  0  0  0  0  0  0  0
   -4.8000    0.0000    0.0000 O   0  0  0  0  0  0  0  0  0  0  0  0
  -12.0000   -1.3856    0.0000 C   0  0  0  0  0  0  0  0  0  0  0  0
  -12.8000   -2.7713    0.0000 C   0  0  0  0  0  0  0  0  0  0  0  0
  -12.8000    0.0000    0.0000 O   0  0  0  0  0  0  0  0  0  0  0  0
  -14.4000   -2.7713    0.0000 N   0  0  0  0  0  0  0  0  0  0  0  0
  -15.2000   -1.3856    0.0000 C   0  0  0  0  0  0  0  0  0  0  0  0
  -15.2000   -4.1569    0.0000 C   0  0  0  0  0  0  0  0  0  0  0  0
   -3.2000    0.0000    0.0000 C   0  0  0  0  0  0  0  0  0  0  0  0
   -2.4000   -1.3856    0.0000 C   0  0  0  0  0  0  0  0  0  0  0  0
   -0.8000    1.3856    0.0000 C   0  0  0  0  0  0  0  0  0  0  0  0
   -2.4000    1.3856    0.0000 C   0  0  0  0  0  0  0  0  0  0  0  0
    0.0000    0.0000    0.0000 C   0  0  0  0  0  0  0  0  0  0  0  0
   -0.8000   -1.3856    0.0000 C   0  0  0  0  0  0  0  0  0  0  0  0
    0.0000   -2.7713    0.0000 N   0  0  0  0  0  0  0  0  0  0  0  0
    1.6000   -2.7713    0.0000 C   0  0  0  0  0  0  0  0  0  0  0  0
    2.4000   -1.3856    0.0000 N   0  0  0  0  0  0  0  0  0  0  0  0
    1.6000    0.0000    0.0000 C   0  0  0  0  0  0  0  0  0  0  0  0
    2.4000    1.3856    0.0000 N   0  0  0  0  0  0  0  0  0  0  0  0
    4.0000    1.3856    0.0000 C   0  0  0  0  0  0  0  0  0  0  0  0
    4.8000    0.0000    0.0000 C   0  0  0  0  0  0  0  0  0  0  0  0
    6.4000    0.0000    0.0000 C   0  0  0  0  0  0  0  0  0  0  0  0
    7.2000    1.3856    0.0000 C   0  0  0  0  0  0  0  0  0  0  0  0
    6.4000    2.7713    0.0000 C   0  0  0  0  0  0  0  0  0  0  0  0
    4.8000    2.7713    0.0000 C   0  0  0  0  0  0  0  0  0  0  0  0
    8.8000    1.3856    0.0000 Br  0  0  0  0  0  0  0  0  0  0  0  0
    4.0000    4.1569    0.0000 F   0  0  0  0  0  0  0  0  0  0  0  0
   -3.2000    2.7713    0.0000 O   0  0  0  0  0  0  0  0  0  0  0  0
   -2.4000    4.1569    0.0000 C   0  0  0  0  0  0  0  0  0  0  0  0
  1  2  1  0  0  0  0
  1  6  1  0  0  0  0
  2  3  1  0  0  0  0
  2  9  1  0  0  0  0
  3  4  1  0  0  0  0
  4  5  1  0  0  0  0
  5  6  1  0  0  0  0
  5  7  1  0  0  0  0
  7  8  1  0  0  0  0
  8 15  1  0  0  0  0
  9 10  1  0  0  0  0
  9 11  2  0  0  0  0
 10 12  1  0  0  0  0
 12 13  1  0  0  0  0
 12 14  1  0  0  0  0
 15 16  2  0  0  0  0
 15 18  1  0  0  0  0
 16 20  1  0  0  0  0
 17 18  2  0  0  0  0
 17 19  1  0  0  0  0
 18 34  1  0  0  0  0
 19 20  1  0  0  0  0
 19 24  2  0  0  0  0
 20 21  2  0  0  0  0
 21 22  1  0  0  0  0
 22 23  2  0  0  0  0
 23 24  1  0  0  0  0
 24 25  1  0  0  0  0
 25 26  1  0  0  0  0
 26 27  1  0  0  0  0
 26 31  2  0  0  0  0
 27 28  2  0  0  0  0
 28 29  1  0  0  0  0
 29 30  2  0  0  0  0
 29 32  1  0  0  0  0
 30 31  1  0  0  0  0
 31 33  1  0  0  0  0
 34 35  1  0  0  0  0
M  END
> <Acceptable>
false

> <IC50>
1.5

$$$$

Generated by Molecular Materials Informatics

 37 41  0  0  0  0  0  0  0  0999 V2000
   -6.9282    2.4000    0.0000 C   0  0  0  0  0  0  0  0  0  0  0  0
   -8.3138    1.6000    0.0000 N   0  0  0  0  0  0  0  0  0  0  0  0
   -5.5426    1.6000    0.0000 C   0  0  0  0  0  0  0  0  0  0  0  0
   -4.1569    2.4000    0.0000 O   0  0  0  0  0  0  0  0  0  0  0  0
   -2.7713    1.6000    0.0000 C   0  0  0  0  0  0  0  0  0  0  0  0
   -2.7713    0.0000    0.0000 C   0  0  0  0  0  0  0  0  0  0  0  0
    0.0000    1.6000    0.0000 C   0  0  0  0  0  0  0  0  0  0  0  0
   -1.3856    2.4000    0.0000 C   0  0  0  0  0  0  0  0  0  0  0  0
    0.0000    0.0000    0.0000 C   0  0  0  0  0  0  0  0  0  0  0  0
   -1.3856   -0.8000    0.0000 C   0  0  0  0  0  0  0  0  0  0  0  0
   -1.3856   -2.4000    0.0000 N   0  0  0  0  0  0  0  0  0  0  0  0
    0.0000   -3.2000    0.0000 C   0  0  0  0  0  0  0  0  0  0  0  0
    1.3856   -2.4000    0.0000 N   0  0  0  0  0  0  0  0  0  0  0  0
    1.3856   -0.8000    0.0000 C   0  0  0  0  0  0  0  0  0  0  0  0
    2.7713    0.0000    0.0000 O   0  0  0  0  0  0  0  0  0  0  0  0
    4.1569   -0.8000    0.0000 C   0  0  0  0  0  0  0  0  0  0  0  0
    4.1569   -2.4000    0.0000 C   0  0  0  0  0  0  0  0  0  0  0  0
    6.9282   -0.8000    0.0000 C   0  0  0  0  0  0  0  0  0  0  0  0
    5.5426    0.0000    0.0000 C   0  0  0  0  0  0  0  0  0  0  0  0
   -1.3856    4.0000    0.0000 O   0  0  0  0  0  0  0  0  0  0  0  0
    0.0000    4.8000    0.0000 C   0  0  0  0  0  0  0  0  0  0  0  0
   -9.6995    2.4000    0.0000 C   0  0  0  0  0  0  0  0  0  0  0  0
  -11.0851    1.6000    0.0000 C   0  0  0  0  0  0  0  0  0  0  0  0
  -11.0851    0.0000    0.0000 N   0  0  0  0  0  0  0  0  0  0  0  0
   -9.6995   -0.8000    0.0000 C   0  0  0  0  0  0  0  0  0  0  0  0
   -8.3138    0.0000    0.0000 C   0  0  0  0  0  0  0  0  0  0  0  0
  -12.4708   -0.8000    0.0000 C   0  0  0  0  0  0  0  0  0  0  0  0
  -13.8564    0.0000    0.0000 C   0  0  0  0  0  0  0  0  0  0  0  0
  -13.8564    1.6000    0.0000 C   0  0  0  0  0  0  0  0  0  0  0  0
  -15.2420   -0.8000    0.0000 O   0  0  0  0  0  0  0  0  0  0  0  0
    6.9282   -2.4000    0.0000 C   0  0  0  0  0  0  0  0  0  0  0  0
    5.5426   -3.2000    0.0000 C   0  0  0  0  0  0  0  0  0  0  0  0
    5.8752   -4.7650    0.0000 C   0  0  0  0  0  0  0  0  0  0  0  0
    7.4665   -4.9323    0.0000 C   0  0  0  0  0  0  0  0  0  0  0  0
    8.1172   -3.4706    0.0000 N   0  0  0  0  0  0  0  0  0  0  0  0
    4.8046   -5.9541    0.0000 C   0  0  0  0  0  0  0  0  0  0  0  0
    8.2665   -6.3179    0.0000 C   0  0  0  0  0  0  0  0  0  0  0  0
  2  1  1  1  0  0  0
  1  3  1  0  0  0  0
  2 22  1  0  0  0  0
  2 26  1  0  0  0  0
  3  4  1  0  0  0  0
  4  5  1  0  0  0  0
  5  6  2  0  0  0  0
  5  8  1  0  0  0  0
  6 10  1  0  0  0  0
  7  8  2  0  0  0  0
  7  9  1  0  0  0  0
  8 20  1  0  0  0  0
  9 10  1  0  0  0  0
  9 14  2  0  0  0  0
 10 11  2  0  0  0  0
 11 12  1  0  0  0  0
 12 13  2  0  0  0  0
 13 14  1  0  0  0  0
 14 15  1  0  0  0  0
 15 16  1  0  0  0  0
 16 17  1  0  0  0  0
 16 19  2  0  0  0  0
 17 32  2  0  0  0  0
 18 19  1  0  0  0  0
 18 31  2  0  0  0  0
 20 21  1  0  0  0  0
 22 23  1  0  0  0  0
 23 24  1  0  0  0  0
 24 25  1  0  0  0  0
 24 27  1  6  0  0  0
 25 26  1  0  0  0  0
 27 28  1  0  0  0  0
 28 29  1  0  0  0  0
 28 30  2  0  0  0  0
 31 32  1  0  0  0  0
 31 35  1  0  0  0  0
 32 33  1  0  0  0  0
 33 34  2  0  0  0  0
 33 36  1  0  0  0  0
 34 35  1  0  0  0  0
 34 37  1  0  0  0  0
M  END
> <Acceptable>
false

> <IC50>
10.1

$$$$

Generated by Molecular Materials Informatics

 20 23  0  0  0  0  0  0  0  0999 V2000
   -2.7541   -0.7380    0.0000 O   0  0  0  0  0  0  0  0  0  0  0  0
    9.6000    0.0000    0.0000 O   0  0  0  0  0  0  0  0  0  0  0  0
    2.4000    1.3856    0.0000 C   0  0  0  0  0  0  0  0  0  0  0  0
    0.8000    1.3856    0.0000 C   0  0  0  0  0  0  0  0  0  0  0  0
    3.2000    0.0000    0.0000 C   0  0  0  0  0  0  0  0  0  0  0  0
    0.0000    0.0000    0.0000 C   0  0  0  0  0  0  0  0  0  0  0  0
    4.8000    0.0000    0.0000 C   0  0  0  0  0  0  0  0  0  0  0  0
   -1.5650    0.3327    0.0000 C   0  0  0  0  0  0  0  0  0  0  0  0
    2.4000   -1.3856    0.0000 C   0  0  0  0  0  0  0  0  0  0  0  0
   -0.2706    2.5747    0.0000 C   0  0  0  0  0  0  0  0  0  0  0  0
    0.8000   -1.3856    0.0000 C   0  0  0  0  0  0  0  0  0  0  0  0
    3.2000    2.7713    0.0000 C   0  0  0  0  0  0  0  0  0  0  0  0
    5.6000    1.3856    0.0000 C   0  0  0  0  0  0  0  0  0  0  0  0
   -1.7323    1.9239    0.0000 C   0  0  0  0  0  0  0  0  0  0  0  0
    4.8000    2.7713    0.0000 C   0  0  0  0  0  0  0  0  0  0  0  0
   -0.9405   -1.2944    0.0000 C   0  0  0  0  0  0  0  0  0  0  0  0
    5.6000   -1.3856    0.0000 C   0  0  0  0  0  0  0  0  0  0  0  0
    7.2000    1.3856    0.0000 C   0  0  0  0  0  0  0  0  0  0  0  0
    7.2000   -1.3856    0.0000 C   0  0  0  0  0  0  0  0  0  0  0  0
    8.0000    0.0000    0.0000 C   0  0  0  0  0  0  0  0  0  0  0  0
  8  1  1  1  0  0  0
  2 20  1  0  0  0  0
  3  4  1  0  0  0  0
  3  5  1  0  0  0  0
  3 12  1  6  0  0  0
  4  6  1  0  0  0  0
  4 10  1  1  0  0  0
  5  7  1  0  0  0  0
  5  9  1  1  0  0  0
  6  8  1  0  0  0  0
  6 11  1  0  0  0  0
  6 16  1  1  0  0  0
  7 13  2  0  0  0  0
  7 17  1  0  0  0  0
  8 14  1  0  0  0  0
  9 11  1  0  0  0  0
 10 14  1  0  0  0  0
 12 15  1  0  0  0  0
 13 15  1  0  0  0  0
 13 18  1  0  0  0  0
 17 19  2  0  0  0  0
 18 20  2  0  0  0  0
 19 20  1  0  0  0  0
M  END
> <Acceptable>
false

> <IC50>
>0.1

$$$$

Generated by Molecular Materials Informatics

 30 33  0  0  0  0  0  0  0  0999 V2000
    2.7713    0.0000    0.0000 C   0  0  0  0  0  0  0  0  0  0  0  0
    4.1569    0.8000    0.0000 N   0  0  0  0  0  0  0  0  0  0  0  0
    1.3856    0.8000    0.0000 C   0  0  0  0  0  0  0  0  0  0  0  0
    0.0000    0.0000    0.0000 C   0  0  0  0  0  0  0  0  0  0  0  0
   -1.3856    0.8000    0.0000 N   0  0  0  0  0  0  0  0  0  0  0  0
    0.0000   -1.6000    0.0000 N   0  0  0  0  0  0  0  0  0  0  0  0
    1.3856   -2.4000    0.0000 C   0  0  0  0  0  0  0  0  0  0  0  0
    1.3856   -4.0000    0.0000 C   0  0  0  0  0  0  0  0  0  0  0  0
    2.7713   -1.6000    0.0000 N   0  0  0  0  0  0  0  0  0  0  0  0
   -1.5529    2.3912    0.0000 N   0  0  0  0  0  0  0  0  0  0  0  0
   -3.1179    2.7239    0.0000 C   0  0  0  0  0  0  0  0  0  0  0  0
   -3.9179    1.3383    0.0000 C   0  0  0  0  0  0  0  0  0  0  0  0
   -2.8473    0.1492    0.0000 C   0  0  0  0  0  0  0  0  0  0  0  0
   -3.1800   -1.4158    0.0000 C   0  0  0  0  0  0  0  0  0  0  0  0
    5.5426    0.0000    0.0000 C   0  0  0  0  0  0  0  0  0  0  0  0
    6.9282    0.8000    0.0000 C   0  0  0  0  0  0  0  0  0  0  0  0
    8.3138    0.0000    0.0000 N   0  0  0  0  0  0  0  0  0  0  0  0
    5.5426   -1.6000    0.0000 O   0  0  0  0  0  0  0  0  0  0  0  0
    0.0912   -4.9405    0.0000 C   0  0  0  0  0  0  0  0  0  0  0  0
    0.5856   -6.4621    0.0000 C   0  0  0  0  0  0  0  0  0  0  0  0
    2.1856   -6.4621    0.0000 C   0  0  0  0  0  0  0  0  0  0  0  0
    3.1261   -7.7566    0.0000 C   0  0  0  0  0  0  0  0  0  0  0  0
    2.6801   -4.9405    0.0000 O   0  0  0  0  0  0  0  0  0  0  0  0
    8.1943   -1.5955    0.0000 C   0  0  0  0  0  0  0  0  0  0  0  0
    9.3672   -2.6838    0.0000 C   0  0  0  0  0  0  0  0  0  0  0  0
   10.9493   -2.4453    0.0000 N   0  0  0  0  0  0  0  0  0  0  0  0
   11.8506   -3.7673    0.0000 C   0  0  0  0  0  0  0  0  0  0  0  0
   11.7493   -1.0597    0.0000 C   0  0  0  0  0  0  0  0  0  0  0  0
   11.1647    0.4297    0.0000 C   0  0  0  0  0  0  0  0  0  0  0  0
    9.6358    0.9013    0.0000 C   0  0  0  0  0  0  0  0  0  0  0  0
  1  2  1  0  0  0  0
  1  3  1  0  0  0  0
  1  9  2  0  0  0  0
  2 15  1  0  0  0  0
  3  4  2  0  0  0  0
  4  5  1  0  0  0  0
  4  6  1  0  0  0  0
  5 10  1  0  0  0  0
  5 13  1  0  0  0  0
  6  7  2  0  0  0  0
  7  8  1  0  0  0  0
  7  9  1  0  0  0  0
  8 19  2  0  0  0  0
  8 23  1  0  0  0  0
 10 11  2  0  0  0  0
 11 12  1  0  0  0  0
 12 13  2  0  0  0  0
 13 14  1  0  0  0  0
 15 16  1  0  0  0  0
 15 18  2  0  0  0  0
 17 16  1  1  0  0  0
 17 24  1  0  0  0  0
 17 30  1  0  0  0  0
 19 20  1  0  0  0  0
 20 21  2  0  0  0  0
 21 22  1  0  0  0  0
 21 23  1  0  0  0  0
 24 25  1  0  0  0  0
 25 26  1  0  0  0  0
 26 27  1  6  0  0  0
 26 28  1  0  0  0  0
 28 29  1  0  0  0  0
 29 30  1  0  0  0  0
M  END
> <Acceptable>
false

> <IC50>
0.28

$$$$

Generated by Molecular Materials Informatics

 32 35  0  0  0  0  0  0  0  0999 V2000
    2.7713    0.0000    0.0000 C   0  0  0  0  0  0  0  0  0  0  0  0
    4.1569    0.8000    0.0000 N   0  0  0  0  0  0  0  0  0  0  0  0
    1.3856    0.8000    0.0000 C   0  0  0  0  0  0  0  0  0  0  0  0
    0.0000    0.0000    0.0000 C   0  0  0  0  0  0  0  0  0  0  0  0
   -1.3856    0.8000    0.0000 N   0  0  0  0  0  0  0  0  0  0  0  0
    0.0000   -1.6000    0.0000 N   0  0  0  0  0  0  0  0  0  0  0  0
    1.3856   -2.4000    0.0000 C   0  0  0  0  0  0  0  0  0  0  0  0
    1.3856   -4.0000    0.0000 C   0  0  0  0  0  0  0  0  0  0  0  0
    2.7713   -1.6000    0.0000 N   0  0  0  0  0  0  0  0  0  0  0  0
   -1.5529    2.3912    0.0000 N   0  0  0  0  0  0  0  0  0  0  0  0
   -3.1179    2.7239    0.0000 C   0  0  0  0  0  0  0  0  0  0  0  0
   -3.9179    1.3383    0.0000 C   0  0  0  0  0  0  0  0  0  0  0  0
   -2.8473    0.1492    0.0000 C   0  0  0  0  0  0  0  0  0  0  0  0
   -3.1800   -1.4158    0.0000 C   0  0  0  0  0  0  0  0  0  0  0  0
    5.5426    0.0000    0.0000 C   0  0  0  0  0  0  0  0  0  0  0  0
    6.9282    0.8000    0.0000 C   0  0  0  0  0  0  0  0  0  0  0  0
    8.3138    0.0000    0.0000 N   0  0  0  0  0  0  0  0  0  0  0  0
    5.5426   -1.6000    0.0000 O   0  0  0  0  0  0  0  0  0  0  0  0
    0.0912   -4.9405    0.0000 C   0  0  0  0  0  0  0  0  0  0  0  0
    0.5856   -6.4621    0.0000 C   0  0  0  0  0  0  0  0  0  0  0  0
    2.1856   -6.4621    0.0000 C   0  0  0  0  0  0  0  0  0  0  0  0
    3.1261   -7.7566    0.0000 C   0  0  0  0  0  0  0  0  0  0  0  0
    2.6801   -4.9405    0.0000 O   0  0  0  0  0  0  0  0  0  0  0  0
    8.3138   -1.6000    0.0000 C   0  0  0  0  0  0  0  0  0  0  0  0
    9.6995   -2.4000    0.0000 C   0  0  0  0  0  0  0  0  0  0  0  0
   11.0851   -1.6000    0.0000 C   0  0  0  0  0  0  0  0  0  0  0  0
   12.4708   -2.4000    0.0000 C   0  0  0  0  0  0  0  0  0  0  0  0
   13.8564   -1.6000    0.0000 N   0  0  0  0  0  0  0  0  0  0  0  0
   13.8564    0.0000    0.0000 C   0  0  0  0  0  0  0  0  0  0  0  0
   15.2420   -2.4000    0.0000 C   0  0  0  0  0  0  0  0  0  0  0  0
   11.0851    0.0000    0.0000 C   0  0  0  0  0  0  0  0  0  0  0  0
    9.6995    0.8000    0.0000 C   0  0  0  0  0  0  0  0  0  0  0  0
  1  2  1  0  0  0  0
  1  3  1  0  0  0  0
  1  9  2  0  0  0  0
  2 15  1  0  0  0  0
  3  4  2  0  0  0  0
  4  5  1  0  0  0  0
  4  6  1  0  0  0  0
  5 10  1  0  0  0  0
  5 13  1  0  0  0  0
  6  7  2  0  0  0  0
  7  8  1  0  0  0  0
  7  9  1  0  0  0  0
  8 19  2  0  0  0  0
  8 23  1  0  0  0  0
 10 11  2  0  0  0  0
 11 12  1  0  0  0  0
 12 13  2  0  0  0  0
 13 14  1  0  0  0  0
 15 16  1  0  0  0  0
 15 18  2  0  0  0  0
 17 16  1  6  0  0  0
 17 24  1  0  0  0  0
 17 32  1  0  0  0  0
 19 20  1  0  0  0  0
 20 21  2  0  0  0  0
 21 22  1  0  0  0  0
 21 23  1  0  0  0  0
 24 25  1  0  0  0  0
 25 26  1  0  0  0  0
 26 27  1  1  0  0  0
 26 31  1  0  0  0  0
 27 28  1  0  0  0  0
 28 29  1  0  0  0  0
 28 30  1  0  0  0  0
 31 32  1  0  0  0  0
M  END
> <Acceptable>
false

> <IC50>
1.65

$$$$

Generated by Molecular Materials Informatics

 29 32  0  0  0  0  0  0  0  0999 V2000
    2.7713    0.0000    0.0000 C   0  0  0  0  0  0  0  0  0  0  0  0
    4.1569    0.8000    0.0000 N   0  0  0  0  0  0  0  0  0  0  0  0
    1.3856    0.8000    0.0000 C   0  0  0  0  0  0  0  0  0  0  0  0
    0.0000    0.0000    0.0000 C   0  0  0  0  0  0  0  0  0  0  0  0
   -1.3856    0.8000    0.0000 N   0  0  0  0  0  0  0  0  0  0  0  0
    0.0000   -1.6000    0.0000 N   0  0  0  0  0  0  0  0  0  0  0  0
    1.3856   -2.4000    0.0000 C   0  0  0  0  0  0  0  0  0  0  0  0
    1.3856   -4.0000    0.0000 C   0  0  0  0  0  0  0  0  0  0  0  0
    2.7713   -1.6000    0.0000 N   0  0  0  0  0  0  0  0  0  0  0  0
   -1.5529    2.3912    0.0000 N   0  0  0  0  0  0  0  0  0  0  0  0
   -3.1179    2.7239    0.0000 C   0  0  0  0  0  0  0  0  0  0  0  0
   -3.9179    1.3383    0.0000 C   0  0  0  0  0  0  0  0  0  0  0  0
   -2.8473    0.1492    0.0000 C   0  0  0  0  0  0  0  0  0  0  0  0
   -3.1800   -1.4158    0.0000 C   0  0  0  0  0  0  0  0  0  0  0  0
    5.5426    0.0000    0.0000 C   0  0  0  0  0  0  0  0  0  0  0  0
    6.9282    0.8000    0.0000 C   0  0  0  0  0  0  0  0  0  0  0  0
    8.3138    0.0000    0.0000 C   0  0  0  0  0  0  0  0  0  0  0  0
    5.5426   -1.6000    0.0000 O   0  0  0  0  0  0  0  0  0  0  0  0
    0.0912   -4.9405    0.0000 C   0  0  0  0  0  0  0  0  0  0  0  0
    0.5856   -6.4621    0.0000 C   0  0  0  0  0  0  0  0  0  0  0  0
    2.1856   -6.4621    0.0000 C   0  0  0  0  0  0  0  0  0  0  0  0
    3.1261   -7.7566    0.0000 C   0  0  0  0  0  0  0  0  0  0  0  0
    2.6801   -4.9405    0.0000 O   0  0  0  0  0  0  0  0  0  0  0  0
    8.3138   -1.6000    0.0000 C   0  0  0  0  0  0  0  0  0  0  0  0
    9.6995   -2.4000    0.0000 C   0  0  0  0  0  0  0  0  0  0  0  0
   11.0851   -1.6000    0.0000 N   0  0  0  0  0  0  0  0  0  0  0  0
   12.4708   -2.4000    0.0000 C   0  0  0  0  0  0  0  0  0  0  0  0
   11.0851    0.0000    0.0000 C   0  0  0  0  0  0  0  0  0  0  0  0
    9.6995    0.8000    0.0000 C   0  0  0  0  0  0  0  0  0  0  0  0
  1  2  1  0  0  0  0
  1  3  1  0  0  0  0
  1  9  2  0  0  0  0
  2 15  1  0  0  0  0
  3  4  2  0  0  0  0
  4  5  1  0  0  0  0
  4  6  1  0  0  0  0
  5 10  1  0  0  0  0
  5 13  1  0  0  0  0
  6  7  2  0  0  0  0
  7  8  1  0  0  0  0
  7  9  1  0  0  0  0
  8 19  2  0  0  0  0
  8 23  1  0  0  0  0
 10 11  2  0  0  0  0
 11 12  1  0  0  0  0
 12 13  2  0  0  0  0
 13 14  1  0  0  0  0
 15 16  1  0  0  0  0
 15 18  2  0  0  0  0
 17 16  1  6  0  0  0
 17 24  1  0  0  0  0
 17 29  1  0  0  0  0
 19 20  1  0  0  0  0
 20 21  2  0  0  0  0
 21 22  1  0  0  0  0
 21 23  1  0  0  0  0
 24 25  1  0  0  0  0
 25 26  1  0  0  0  0
 26 27  1  1  0  0  0
 26 28  1  0  0  0  0
 28 29  1  0  0  0  0
M  END
> <Acceptable>
false

> <IC50>
4.17

$$$$

Generated by Molecular Materials Informatics

 26 28  0  0  0  0  0  0  0  0999 V2000
   -2.7713    0.0000    0.0000 C   0  0  0  0  0  0  0  0  0  0  0  0
   -4.1569    0.8000    0.0000 N   0  0  0  0  0  0  0  0  0  0  0  0
   -1.3856    0.8000    0.0000 C   0  0  0  0  0  0  0  0  0  0  0  0
    0.0000    0.0000    0.0000 C   0  0  0  0  0  0  0  0  0  0  0  0
    1.3856    0.8000    0.0000 N   0  0  0  0  0  0  0  0  0  0  0  0
    0.0000   -1.6000    0.0000 N   0  0  0  0  0  0  0  0  0  0  0  0
   -1.3856   -2.4000    0.0000 C   0  0  0  0  0  0  0  0  0  0  0  0
   -1.3856   -4.0000    0.0000 C   0  0  0  0  0  0  0  0  0  0  0  0
   -2.7713   -1.6000    0.0000 N   0  0  0  0  0  0  0  0  0  0  0  0
    1.5529    2.3912    0.0000 N   0  0  0  0  0  0  0  0  0  0  0  0
    3.1179    2.7239    0.0000 C   0  0  0  0  0  0  0  0  0  0  0  0
    3.9179    1.3383    0.0000 C   0  0  0  0  0  0  0  0  0  0  0  0
    2.8473    0.1492    0.0000 C   0  0  0  0  0  0  0  0  0  0  0  0
    3.1800   -1.4158    0.0000 C   0  0  0  0  0  0  0  0  0  0  0  0
   -5.5426    0.0000    0.0000 C   0  0  0  0  0  0  0  0  0  0  0  0
   -6.9282    0.8000    0.0000 C   0  0  0  0  0  0  0  0  0  0  0  0
   -8.3138    0.0000    0.0000 C   0  0  0  0  0  0  0  0  0  0  0  0
   -9.6995    0.8000    0.0000 N   0  0  0  0  0  0  0  0  0  0  0  0
   -9.6995    2.4000    0.0000 C   0  0  0  0  0  0  0  0  0  0  0  0
  -11.0851    0.0000    0.0000 C   0  0  0  0  0  0  0  0  0  0  0  0
   -5.5426   -1.6000    0.0000 O   0  0  0  0  0  0  0  0  0  0  0  0
   -0.0912   -4.9405    0.0000 C   0  0  0  0  0  0  0  0  0  0  0  0
   -0.5856   -6.4621    0.0000 C   0  0  0  0  0  0  0  0  0  0  0  0
   -2.1856   -6.4621    0.0000 C   0  0  0  0  0  0  0  0  0  0  0  0
   -3.1261   -7.7566    0.0000 C   0  0  0  0  0  0  0  0  0  0  0  0
   -2.6801   -4.9405    0.0000 O   0  0  0  0  0  0  0  0  0  0  0  0
  1  2  1  0  0  0  0
  1  3  1  0  0  0  0
  1  9  2  0  0  0  0
  2 15  1  0  0  0  0
  3  4  2  0  0  0  0
  4  5  1  0  0  0  0
  4  6  1  0  0  0  0
  5 10  1  0  0  0  0
  5 13  1  0  0  0  0
  6  7  2  0  0  0  0
  7  8  1  0  0  0  0
  7  9  1  0  0  0  0
  8 22  2  0  0  0  0
  8 26  1  0  0  0  0
 10 11  2  0  0  0  0
 11 12  1  0  0  0  0
 12 13  2  0  0  0  0
 13 14  1  0  0  0  0
 15 16  1  0  0  0  0
 15 21  2  0  0  0  0
 16 17  1  0  0  0  0
 17 18  1  0  0  0  0
 18 19  1  0  0  0  0
 18 20  1  0  0  0  0
 22 23  1  0  0  0  0
 23 24  2  0  0  0  0
 24 25  1  0  0  0  0
 24 26  1  0  0  0  0
M  END
> <Acceptable>
false

> <IC50>
0.65

$$$$

Generated by Molecular Materials Informatics

 21 23  0  0  0  0  0  0  0  0999 V2000
   -2.3162    3.6023    0.0000 C   0  0  0  0  0  0  0  0  0  0  0  0
   -1.0218    2.6618    0.0000 C   0  0  0  0  0  0  0  0  0  0  0  0
   -1.1890    1.0706    0.0000 C   0  0  0  0  0  0  0  0  0  0  0  0
   -2.5747    0.2706    0.0000 N   0  0  0  0  0  0  0  0  0  0  0  0
   -4.0363    0.9214    0.0000 C   0  0  0  0  0  0  0  0  0  0  0  0
   -2.2420   -1.2944    0.0000 C   0  0  0  0  0  0  0  0  0  0  0  0
   -3.3126   -2.4835    0.0000 C   0  0  0  0  0  0  0  0  0  0  0  0
   -0.6508   -1.4617    0.0000 C   0  0  0  0  0  0  0  0  0  0  0  0
    0.0000    0.0000    0.0000 C   0  0  0  0  0  0  0  0  0  0  0  0
    1.3856   -0.8000    0.0000 C   0  0  0  0  0  0  0  0  0  0  0  0
    1.3856   -2.4000    0.0000 C   0  0  0  0  0  0  0  0  0  0  0  0
    2.7713   -3.2000    0.0000 C   0  0  0  0  0  0  0  0  0  0  0  0
    4.1569   -2.4000    0.0000 C   0  0  0  0  0  0  0  0  0  0  0  0
    4.1569   -0.8000    0.0000 C   0  0  0  0  0  0  0  0  0  0  0  0
    2.7713    0.0000    0.0000 C   0  0  0  0  0  0  0  0  0  0  0  0
    0.9405    1.2944    0.0000 C   0  0  0  0  0  0  0  0  0  0  0  0
    2.5317    1.1272    0.0000 C   0  0  0  0  0  0  0  0  0  0  0  0
    3.4721    2.4216    0.0000 C   0  0  0  0  0  0  0  0  0  0  0  0
    2.8214    3.8833    0.0000 C   0  0  0  0  0  0  0  0  0  0  0  0
    1.2301    4.0505    0.0000 C   0  0  0  0  0  0  0  0  0  0  0  0
    0.2897    2.7561    0.0000 C   0  0  0  0  0  0  0  0  0  0  0  0
  1  2  1  0  0  0  0
  2  3  2  0  0  0  0
  3  4  1  0  0  0  0
  3  9  1  0  0  0  0
  4  5  1  0  0  0  0
  4  6  1  0  0  0  0
  6  7  1  1  0  0  0
  6  8  1  0  0  0  0
  8  9  1  0  0  0  0
  9 10  1  0  0  0  0
  9 16  1  0  0  0  0
 10 11  1  0  0  0  0
 10 15  2  0  0  0  0
 11 12  2  0  0  0  0
 12 13  1  0  0  0  0
 13 14  2  0  0  0  0
 14 15  1  0  0  0  0
 16 17  1  0  0  0  0
 16 21  2  0  0  0  0
 17 18  2  0  0  0  0
 18 19  1  0  0  0  0
 19 20  2  0  0  0  0
 20 21  1  0  0  0  0
M  END
> <Acceptable>
true

> <IC50>
100

$$$$

Generated by Molecular Materials Informatics

 23 26  0  0  0  0  0  0  0  0999 V2000
   -0.8733    2.4371    0.0000 S   0  0  0  0  0  0  0  0  0  0  0  0
   -1.3220    0.9013    0.0000 C   0  0  0  0  0  0  0  0  0  0  0  0
   -2.8509    0.4297    0.0000 N   0  0  0  0  0  0  0  0  0  0  0  0
   -3.4354   -1.0597    0.0000 C   0  0  0  0  0  0  0  0  0  0  0  0
   -5.0354   -1.0597    0.0000 C   0  0  0  0  0  0  0  0  0  0  0  0
   -5.8354   -2.4453    0.0000 C   0  0  0  0  0  0  0  0  0  0  0  0
   -5.0354   -3.8310    0.0000 C   0  0  0  0  0  0  0  0  0  0  0  0
   -3.4354   -3.8310    0.0000 C   0  0  0  0  0  0  0  0  0  0  0  0
   -2.6354   -2.4453    0.0000 C   0  0  0  0  0  0  0  0  0  0  0  0
   -1.0533   -2.6838    0.0000 N   0  0  0  0  0  0  0  0  0  0  0  0
    0.1196   -1.5955    0.0000 C   0  0  0  0  0  0  0  0  0  0  0  0
    1.6090   -2.1801    0.0000 N   0  0  0  0  0  0  0  0  0  0  0  0
    1.8474   -3.7622    0.0000 C   0  0  0  0  0  0  0  0  0  0  0  0
    3.3368   -4.3467    0.0000 C   0  0  0  0  0  0  0  0  0  0  0  0
    4.5878   -3.3492    0.0000 N   0  0  0  0  0  0  0  0  0  0  0  0
    6.0772   -3.9337    0.0000 C   0  0  0  0  0  0  0  0  0  0  0  0
    4.3493   -1.7670    0.0000 C   0  0  0  0  0  0  0  0  0  0  0  0
    2.8599   -1.1825    0.0000 C   0  0  0  0  0  0  0  0  0  0  0  0
    0.0000    0.0000    0.0000 C   0  0  0  0  0  0  0  0  0  0  0  0
    1.2657    0.9788    0.0000 C   0  0  0  0  0  0  0  0  0  0  0  0
    0.7260    2.4850    0.0000 C   0  0  0  0  0  0  0  0  0  0  0  0
    1.6273    3.8070    0.0000 C   0  0  0  0  0  0  0  0  0  0  0  0
    0.9331    5.2485    0.0000 O   0  0  0  0  0  0  0  0  0  0  0  0
  1  2  1  0  0  0  0
  1 21  1  0  0  0  0
  2  3  1  0  0  0  0
  2 19  2  0  0  0  0
  3  4  1  0  0  0  0
  4  5  1  0  0  0  0
  4  9  2  0  0  0  0
  5  6  2  0  0  0  0
  6  7  1  0  0  0  0
  7  8  2  0  0  0  0
  8  9  1  0  0  0  0
  9 10  1  0  0  0  0
 10 11  2  0  0  0  0
 11 12  1  0  0  0  0
 11 19  1  0  0  0  0
 12 13  1  0  0  0  0
 12 18  1  0  0  0  0
 13 14  1  0  0  0  0
 14 15  1  0  0  0  0
 15 16  1  0  0  0  0
 15 17  1  0  0  0  0
 17 18  1  0  0  0  0
 19 20  1  0  0  0  0
 20 21  2  0  0  0  0
 21 22  1  0  0  0  0
 22 23  1  0  0  0  0
M  END
> <Acceptable>
false

> <IC50>
11.6

$$$$

Generated by Molecular Materials Informatics

 25 28  0  0  0  0  0  0  0  0999 V2000
   -1.0285   -1.2257    0.0000 C   0  0  0  0  0  0  0  0  0  0  0  0
    0.5472   -1.5035    0.0000 C   0  0  0  0  0  0  0  0  0  0  0  0
    0.0000    0.0000    0.0000 C   0  0  0  0  0  0  0  0  0  0  0  0
   -3.4285    2.6113    0.0000 C   0  0  0  0  0  0  0  0  0  0  0  0
   -2.6285    1.2257    0.0000 N   0  0  0  0  0  0  0  0  0  0  0  0
   -3.4285   -0.1600    0.0000 C   0  0  0  0  0  0  0  0  0  0  0  0
   -5.0285   -0.1600    0.0000 C   0  0  0  0  0  0  0  0  0  0  0  0
   -5.0285    2.6113    0.0000 C   0  0  0  0  0  0  0  0  0  0  0  0
   -5.8285    1.2257    0.0000 N   0  0  0  0  0  0  0  0  0  0  0  0
   -7.3935    1.5583    0.0000 C   0  0  0  0  0  0  0  0  0  0  0  0
   -7.5607    3.1496    0.0000 C   0  0  0  0  0  0  0  0  0  0  0  0
   -6.0991    3.8003    0.0000 N   0  0  0  0  0  0  0  0  0  0  0  0
   -8.9464    3.9496    0.0000 C   0  0  0  0  0  0  0  0  0  0  0  0
   -2.6285    3.9970    0.0000 O   0  0  0  0  0  0  0  0  0  0  0  0
   -1.0285    1.2257    0.0000 C   0  0  0  0  0  0  0  0  0  0  0  0
    1.3856    0.8000    0.0000 C   0  0  0  0  0  0  0  0  0  0  0  0
    2.7713    0.0000    0.0000 C   0  0  0  0  0  0  0  0  0  0  0  0
    4.1569    0.8000    0.0000 C   0  0  0  0  0  0  0  0  0  0  0  0
    4.1569    2.4000    0.0000 C   0  0  0  0  0  0  0  0  0  0  0  0
    2.7713    3.2000    0.0000 C   0  0  0  0  0  0  0  0  0  0  0  0
    1.3856    2.4000    0.0000 C   0  0  0  0  0  0  0  0  0  0  0  0
    5.5426    3.2000    0.0000 C   0  0  0  0  0  0  0  0  0  0  0  0
    5.5426    4.8000    0.0000 F   0  0  0  0  0  0  0  0  0  0  0  0
    6.9282    2.4000    0.0000 F   0  0  0  0  0  0  0  0  0  0  0  0
    6.9282    4.0000    0.0000 F   0  0  0  0  0  0  0  0  0  0  0  0
  1  2  1  0  0  0  0
  1  3  1  0  0  0  0
  2  3  1  0  0  0  0
  3 15  1  0  0  0  0
  3 16  1  0  0  0  0
  4  5  1  0  0  0  0
  4  8  1  0  0  0  0
  4 14  2  0  0  0  0
  5  6  1  0  0  0  0
  5 15  1  0  0  0  0
  6  7  2  0  0  0  0
  7  9  1  0  0  0  0
  8  9  1  0  0  0  0
  8 12  2  0  0  0  0
  9 10  1  0  0  0  0
 10 11  2  0  0  0  0
 11 12  1  0  0  0  0
 11 13  1  0  0  0  0
 16 17  1  0  0  0  0
 16 21  2  0  0  0  0
 17 18  2  0  0  0  0
 18 19  1  0  0  0  0
 19 20  2  0  0  0  0
 19 22  1  0  0  0  0
 20 21  1  0  0  0  0
 22 23  1  0  0  0  0
 22 24  1  0  0  0  0
 22 25  1  0  0  0  0
M  END
> <Acceptable>
false

> <IC50>
14

$$$$

Generated by Molecular Materials Informatics

 21 24  0  0  0  0  0  0  0  0999 V2000
   -1.0285   -1.2257    0.0000 C   0  0  0  0  0  0  0  0  0  0  0  0
    0.5472   -1.5035    0.0000 C   0  0  0  0  0  0  0  0  0  0  0  0
    0.0000    0.0000    0.0000 C   0  0  0  0  0  0  0  0  0  0  0  0
   -3.4285    2.6113    0.0000 C   0  0  0  0  0  0  0  0  0  0  0  0
   -2.6285    1.2257    0.0000 N   0  0  0  0  0  0  0  0  0  0  0  0
   -3.4285   -0.1600    0.0000 C   0  0  0  0  0  0  0  0  0  0  0  0
   -5.0285   -0.1600    0.0000 C   0  0  0  0  0  0  0  0  0  0  0  0
   -5.0285    2.6113    0.0000 C   0  0  0  0  0  0  0  0  0  0  0  0
   -5.8285    1.2257    0.0000 N   0  0  0  0  0  0  0  0  0  0  0  0
   -7.3935    1.5583    0.0000 C   0  0  0  0  0  0  0  0  0  0  0  0
   -7.5607    3.1496    0.0000 C   0  0  0  0  0  0  0  0  0  0  0  0
   -6.0991    3.8003    0.0000 N   0  0  0  0  0  0  0  0  0  0  0  0
   -8.9464    3.9496    0.0000 C   0  0  0  0  0  0  0  0  0  0  0  0
   -2.6285    3.9970    0.0000 O   0  0  0  0  0  0  0  0  0  0  0  0
   -1.0285    1.2257    0.0000 C   0  0  0  0  0  0  0  0  0  0  0  0
    1.3856    0.8000    0.0000 C   0  0  0  0  0  0  0  0  0  0  0  0
    2.7713    0.0000    0.0000 C   0  0  0  0  0  0  0  0  0  0  0  0
    4.1569    0.8000    0.0000 C   0  0  0  0  0  0  0  0  0  0  0  0
    4.1569    2.4000    0.0000 C   0  0  0  0  0  0  0  0  0  0  0  0
    2.7713    3.2000    0.0000 C   0  0  0  0  0  0  0  0  0  0  0  0
    1.3856    2.4000    0.0000 C   0  0  0  0  0  0  0  0  0  0  0  0
  1  2  1  0  0  0  0
  1  3  1  0  0  0  0
  2  3  1  0  0  0  0
  3 15  1  0  0  0  0
  3 16  1  0  0  0  0
  4  5  1  0  0  0  0
  4  8  1  0  0  0  0
  4 14  2  0  0  0  0
  5  6  1  0  0  0  0
  5 15  1  0  0  0  0
  6  7  2  0  0  0  0
  7  9  1  0  0  0  0
  8  9  1  0  0  0  0
  8 12  2  0  0  0  0
  9 10  1  0  0  0  0
 10 11  2  0  0  0  0
 11 12  1  0  0  0  0
 11 13  1  0  0  0  0
 16 17  1  0  0  0  0
 16 21  2  0  0  0  0
 17 18  2  0  0  0  0
 18 19  1  0  0  0  0
 19 20  2  0  0  0  0
 20 21  1  0  0  0  0
M  END
> <Acceptable>
true

> <IC50>
100

$$$$

Generated by Molecular Materials Informatics

 22 25  0  0  0  0  0  0  0  0999 V2000
    1.0285   -1.2257    0.0000 C   0  0  0  0  0  0  0  0  0  0  0  0
   -0.5472   -1.5035    0.0000 C   0  0  0  0  0  0  0  0  0  0  0  0
    0.0000    0.0000    0.0000 C   0  0  0  0  0  0  0  0  0  0  0  0
    3.4285    2.6113    0.0000 C   0  0  0  0  0  0  0  0  0  0  0  0
    2.6285    1.2257    0.0000 N   0  0  0  0  0  0  0  0  0  0  0  0
    3.4285   -0.1600    0.0000 C   0  0  0  0  0  0  0  0  0  0  0  0
    5.0285   -0.1600    0.0000 C   0  0  0  0  0  0  0  0  0  0  0  0
    5.0285    2.6113    0.0000 C   0  0  0  0  0  0  0  0  0  0  0  0
    5.8285    1.2257    0.0000 N   0  0  0  0  0  0  0  0  0  0  0  0
    7.3935    1.5583    0.0000 C   0  0  0  0  0  0  0  0  0  0  0  0
    7.5607    3.1496    0.0000 C   0  0  0  0  0  0  0  0  0  0  0  0
    6.0991    3.8003    0.0000 N   0  0  0  0  0  0  0  0  0  0  0  0
    8.9464    3.9496    0.0000 C   0  0  0  0  0  0  0  0  0  0  0  0
    2.6285    3.9970    0.0000 O   0  0  0  0  0  0  0  0  0  0  0  0
    1.0285    1.2257    0.0000 C   0  0  0  0  0  0  0  0  0  0  0  0
   -1.3856    0.8000    0.0000 C   0  0  0  0  0  0  0  0  0  0  0  0
   -2.7713    0.0000    0.0000 C   0  0  0  0  0  0  0  0  0  0  0  0
   -4.1569    0.8000    0.0000 C   0  0  0  0  0  0  0  0  0  0  0  0
   -4.1569    2.4000    0.0000 C   0  0  0  0  0  0  0  0  0  0  0  0
   -2.7713    3.2000    0.0000 C   0  0  0  0  0  0  0  0  0  0  0  0
   -1.3856    2.4000    0.0000 C   0  0  0  0  0  0  0  0  0  0  0  0
    8.5825    0.4877    0.0000 Br  0  0  0  0  0  0  0  0  0  0  0  0
  1  2  1  0  0  0  0
  1  3  1  0  0  0  0
  2  3  1  0  0  0  0
  3 15  1  0  0  0  0
  3 16  1  0  0  0  0
  4  5  1  0  0  0  0
  4  8  1  0  0  0  0
  4 14  2  0  0  0  0
  5  6  1  0  0  0  0
  5 15  1  0  0  0  0
  6  7  2  0  0  0  0
  7  9  1  0  0  0  0
  8  9  1  0  0  0  0
  8 12  2  0  0  0  0
  9 10  1  0  0  0  0
 10 11  2  0  0  0  0
 10 22  1  0  0  0  0
 11 12  1  0  0  0  0
 11 13  1  0  0  0  0
 16 17  1  0  0  0  0
 16 21  2  0  0  0  0
 17 18  2  0  0  0  0
 18 19  1  0  0  0  0
 19 20  2  0  0  0  0
 20 21  1  0  0  0  0
M  END
> <Acceptable>
false

> <IC50>
26

$$$$

Generated by Molecular Materials Informatics

 19 20  0  0  0  0  0  0  0  0999 V2000
   -1.3856    0.8000    0.0000 O   0  0  0  0  0  0  0  0  0  0  0  0
   -2.7713    0.0000    0.0000 C   0  0  0  0  0  0  0  0  0  0  0  0
   -4.1569    0.8000    0.0000 C   0  0  0  0  0  0  0  0  0  0  0  0
   -5.5426    0.0000    0.0000 N   0  0  0  0  0  0  0  0  0  0  0  0
   -5.5426   -1.6000    0.0000 C   0  0  0  0  0  0  0  0  0  0  0  0
   -6.9282    0.8000    0.0000 C   0  0  0  0  0  0  0  0  0  0  0  0
    0.0000    0.0000    0.0000 C   0  0  0  0  0  0  0  0  0  0  0  0
    0.0000   -1.6000    0.0000 C   0  0  0  0  0  0  0  0  0  0  0  0
    1.3856   -2.4000    0.0000 C   0  0  0  0  0  0  0  0  0  0  0  0
    1.3856   -4.0000    0.0000 C   0  0  0  0  0  0  0  0  0  0  0  0
    0.0000   -4.8000    0.0000 C   0  0  0  0  0  0  0  0  0  0  0  0
   -1.3856   -4.0000    0.0000 C   0  0  0  0  0  0  0  0  0  0  0  0
   -1.3856   -2.4000    0.0000 C   0  0  0  0  0  0  0  0  0  0  0  0
    1.3856    0.8000    0.0000 C   0  0  0  0  0  0  0  0  0  0  0  0
    1.3856    2.4000    0.0000 C   0  0  0  0  0  0  0  0  0  0  0  0
    2.7713    3.2000    0.0000 C   0  0  0  0  0  0  0  0  0  0  0  0
    4.1569    2.4000    0.0000 C   0  0  0  0  0  0  0  0  0  0  0  0
    4.1569    0.8000    0.0000 C   0  0  0  0  0  0  0  0  0  0  0  0
    2.7713    0.0000    0.0000 C   0  0  0  0  0  0  0  0  0  0  0  0
  1  2  1  0  0  0  0
  1  7  1  0  0  0  0
  2  3  1  0  0  0  0
  3  4  1  0  0  0  0
  4  5  1  0  0  0  0
  4  6  1  0  0  0  0
  7  8  1  0  0  0  0
  7 14  1  0  0  0  0
  8  9  1  0  0  0  0
  8 13  2  0  0  0  0
  9 10  2  0  0  0  0
 10 11  1  0  0  0  0
 11 12  2  0  0  0  0
 12 13  1  0  0  0  0
 14 15  1  0  0  0  0
 14 19  2  0  0  0  0
 15 16  2  0  0  0  0
 16 17  1  0  0  0  0
 17 18  2  0  0  0  0
 18 19  1  0  0  0  0
M  END
> <Acceptable>
false

> <IC50>
18.5

$$$$

Generated by Molecular Materials Informatics

 16 17  0  0  0  0  0  0  0  0999 V2000
    0.0000    1.6000    0.0000 O   0  0  0  0  0  0  0  0  0  0  0  0
    0.0000    0.0000    0.0000 C   0  0  0  0  0  0  0  0  0  0  0  0
   -1.3856   -0.8000    0.0000 C   0  0  0  0  0  0  0  0  0  0  0  0
   -1.3856   -2.4000    0.0000 C   0  0  0  0  0  0  0  0  0  0  0  0
   -2.7713   -3.2000    0.0000 C   0  0  0  0  0  0  0  0  0  0  0  0
   -4.1569   -2.4000    0.0000 C   0  0  0  0  0  0  0  0  0  0  0  0
   -5.5426   -3.2000    0.0000 F   0  0  0  0  0  0  0  0  0  0  0  0
   -4.1569   -0.8000    0.0000 C   0  0  0  0  0  0  0  0  0  0  0  0
   -2.7713    0.0000    0.0000 C   0  0  0  0  0  0  0  0  0  0  0  0
    1.3856   -0.8000    0.0000 C   0  0  0  0  0  0  0  0  0  0  0  0
    2.7713    0.0000    0.0000 C   0  0  0  0  0  0  0  0  0  0  0  0
    4.1569   -0.8000    0.0000 C   0  0  0  0  0  0  0  0  0  0  0  0
    4.1569   -2.4000    0.0000 C   0  0  0  0  0  0  0  0  0  0  0  0
    5.5426   -3.2000    0.0000 F   0  0  0  0  0  0  0  0  0  0  0  0
    2.7713   -3.2000    0.0000 C   0  0  0  0  0  0  0  0  0  0  0  0
    1.3856   -2.4000    0.0000 C   0  0  0  0  0  0  0  0  0  0  0  0
  1  2  1  0  0  0  0
  2  3  1  0  0  0  0
  2 10  1  0  0  0  0
  3  4  1  0  0  0  0
  3  9  2  0  0  0  0
  4  5  2  0  0  0  0
  5  6  1  0  0  0  0
  6  7  1  0  0  0  0
  6  8  2  0  0  0  0
  8  9  1  0  0  0  0
 10 11  1  0  0  0  0
 10 16  2  0  0  0  0
 11 12  2  0  0  0  0
 12 13  1  0  0  0  0
 13 14  1  0  0  0  0
 13 15  2  0  0  0  0
 15 16  1  0  0  0  0
M  END
> <Acceptable>
true

> <IC50>
99

$$$$

Generated by Molecular Materials Informatics

 16 17  0  0  0  0  0  0  0  0999 V2000
   -5.5426   -3.2000    0.0000 F   0  0  0  0  0  0  0  0  0  0  0  0
   -4.1569   -2.4000    0.0000 C   0  0  0  0  0  0  0  0  0  0  0  0
   -2.7713   -3.2000    0.0000 C   0  0  0  0  0  0  0  0  0  0  0  0
   -1.3856   -2.4000    0.0000 C   0  0  0  0  0  0  0  0  0  0  0  0
   -1.3856   -0.8000    0.0000 C   0  0  0  0  0  0  0  0  0  0  0  0
   -2.7713    0.0000    0.0000 C   0  0  0  0  0  0  0  0  0  0  0  0
   -4.1569   -0.8000    0.0000 C   0  0  0  0  0  0  0  0  0  0  0  0
    0.0000    0.0000    0.0000 C   0  0  0  0  0  0  0  0  0  0  0  0
    0.0000    1.6000    0.0000 O   0  0  0  0  0  0  0  0  0  0  0  0
    1.3856   -0.8000    0.0000 C   0  0  0  0  0  0  0  0  0  0  0  0
    1.3856   -2.4000    0.0000 C   0  0  0  0  0  0  0  0  0  0  0  0
    2.7713   -3.2000    0.0000 C   0  0  0  0  0  0  0  0  0  0  0  0
    4.1569   -2.4000    0.0000 C   0  0  0  0  0  0  0  0  0  0  0  0
    5.5426   -3.2000    0.0000 F   0  0  0  0  0  0  0  0  0  0  0  0
    4.1569   -0.8000    0.0000 C   0  0  0  0  0  0  0  0  0  0  0  0
    2.7713    0.0000    0.0000 C   0  0  0  0  0  0  0  0  0  0  0  0
  1  2  1  0  0  0  0
  2  3  1  0  0  0  0
  2  7  2  0  0  0  0
  3  4  2  0  0  0  0
  4  5  1  0  0  0  0
  5  6  2  0  0  0  0
  5  8  1  0  0  0  0
  6  7  1  0  0  0  0
  8  9  2  0  0  0  0
  8 10  1  0  0  0  0
 10 11  1  0  0  0  0
 10 16  2  0  0  0  0
 11 12  2  0  0  0  0
 12 13  1  0  0  0  0
 13 14  1  0  0  0  0
 13 15  2  0  0  0  0
 15 16  1  0  0  0  0
M  END
> <Acceptable>
true

> <IC50>
72

$$$$

Generated by Molecular Materials Informatics

  7  7  0  0  0  0  0  0  0  0999 V2000
   -1.6000    0.0000    0.0000 N   0  0  0  0  0  0  0  0  0  0  0  0
    3.2000    0.0000    0.0000 N   0  0  0  0  0  0  0  0  0  0  0  0
    0.0000    0.0000    0.0000 C   0  0  0  0  0  0  0  0  0  0  0  0
    0.8000   -1.3856    0.0000 C   0  0  0  0  0  0  0  0  0  0  0  0
    0.8000    1.3856    0.0000 C   0  0  0  0  0  0  0  0  0  0  0  0
    2.4000   -1.3856    0.0000 C   0  0  0  0  0  0  0  0  0  0  0  0
    2.4000    1.3856    0.0000 C   0  0  0  0  0  0  0  0  0  0  0  0
  1  3  1  0  0  0  0
  2  6  2  0  0  0  0
  2  7  1  0  0  0  0
  3  4  2  0  0  0  0
  3  5  1  0  0  0  0
  4  6  1  0  0  0  0
  5  7  2  0  0  0  0
M  END
> <Acceptable>
false

> <IC50>
4365

$$$$

Generated by Molecular Materials Informatics

 21 24  0  0  0  0  0  0  0  0999 V2000
   -0.4623   -2.5473    0.0000 S   0  0  0  0  0  0  0  0  0  0  0  0
   -0.3034    2.6925    0.0000 N   0  0  0  0  0  0  0  0  0  0  0  0
   -2.2985    5.1943    0.0000 N   0  0  0  0  0  0  0  0  0  0  0  0
    2.2541    1.7976    0.0000 N   0  0  0  0  0  0  0  0  0  0  0  0
    2.2541   -1.7976    0.0000 N   0  0  0  0  0  0  0  0  0  0  0  0
   -1.8855    2.4540    0.0000 C   0  0  0  0  0  0  0  0  0  0  0  0
    0.2812    4.1819    0.0000 C   0  0  0  0  0  0  0  0  0  0  0  0
   -2.8831    3.7049    0.0000 C   0  0  0  0  0  0  0  0  0  0  0  0
   -0.7164    5.4328    0.0000 C   0  0  0  0  0  0  0  0  0  0  0  0
    0.6942    1.4415    0.0000 C   0  0  0  0  0  0  0  0  0  0  0  0
    0.0000    0.0000    0.0000 C   0  0  0  0  0  0  0  0  0  0  0  0
    0.6942   -1.4416    0.0000 C   0  0  0  0  0  0  0  0  0  0  0  0
    3.5050    0.8000    0.0000 C   0  0  0  0  0  0  0  0  0  0  0  0
   -1.5855   -0.2148    0.0000 C   0  0  0  0  0  0  0  0  0  0  0  0
    3.5050   -0.8000    0.0000 C   0  0  0  0  0  0  0  0  0  0  0  0
   -1.8712   -1.7891    0.0000 C   0  0  0  0  0  0  0  0  0  0  0  0
    4.8907    1.6000    0.0000 C   0  0  0  0  0  0  0  0  0  0  0  0
    4.8907   -1.6000    0.0000 C   0  0  0  0  0  0  0  0  0  0  0  0
   -3.3128   -2.4833    0.0000 C   0  0  0  0  0  0  0  0  0  0  0  0
    6.2763    0.8000    0.0000 C   0  0  0  0  0  0  0  0  0  0  0  0
    6.2763   -0.8000    0.0000 C   0  0  0  0  0  0  0  0  0  0  0  0
  1 12  1  0  0  0  0
  1 16  1  0  0  0  0
  2  6  1  0  0  0  0
  2  7  1  0  0  0  0
  2 10  1  0  0  0  0
  3  8  1  0  0  0  0
  3  9  1  0  0  0  0
  4 10  1  0  0  0  0
  4 13  1  0  0  0  0
  5 12  2  0  0  0  0
  5 15  1  0  0  0  0
  6  8  1  0  0  0  0
  7  9  1  0  0  0  0
 10 11  2  0  0  0  0
 11 12  1  0  0  0  0
 11 14  1  0  0  0  0
 13 15  2  0  0  0  0
 13 17  1  0  0  0  0
 14 16  2  0  0  0  0
 15 18  1  0  0  0  0
 16 19  1  0  0  0  0
 17 20  2  0  0  0  0
 18 21  2  0  0  0  0
 20 21  1  0  0  0  0
M  END
> <Acceptable>
false

> <IC50>
14.2

$$$$

Generated by Molecular Materials Informatics

 24 26  0  0  0  0  0  0  0  0999 V2000
   -2.4000   -1.3856    0.0000 C   0  0  0  0  0  0  0  0  0  0  0  0
   -1.6000   -2.7713    0.0000 C   0  0  0  0  0  0  0  0  0  0  0  0
    0.0000   -2.7713    0.0000 C   0  0  0  0  0  0  0  0  0  0  0  0
   -1.6000    0.0000    0.0000 C   0  0  0  0  0  0  0  0  0  0  0  0
    0.0000    0.0000    0.0000 C   0  0  0  0  0  0  0  0  0  0  0  0
    0.8000   -1.3856    0.0000 C   0  0  0  0  0  0  0  0  0  0  0  0
    2.3650   -1.0530    0.0000 O   0  0  0  0  0  0  0  0  0  0  0  0
    2.5323    0.5383    0.0000 C   0  0  0  0  0  0  0  0  0  0  0  0
    1.0706    1.1890    0.0000 C   0  0  0  0  0  0  0  0  0  0  0  0
   -4.0000   -1.3856    0.0000 Cl  0  0  0  0  0  0  0  0  0  0  0  0
    3.9179    1.3383    0.0000 C   0  0  0  0  0  0  0  0  0  0  0  0
    5.3036    0.5383    0.0000 N   0  0  0  0  0  0  0  0  0  0  0  0
    3.9179    2.9383    0.0000 O   0  0  0  0  0  0  0  0  0  0  0  0
    6.6892    1.3383    0.0000 C   0  0  0  0  0  0  0  0  0  0  0  0
    8.0748    0.5383    0.0000 C   0  0  0  0  0  0  0  0  0  0  0  0
    8.0748   -1.0617    0.0000 C   0  0  0  0  0  0  0  0  0  0  0  0
    9.4605   -1.8617    0.0000 C   0  0  0  0  0  0  0  0  0  0  0  0
   10.8461   -1.0617    0.0000 C   0  0  0  0  0  0  0  0  0  0  0  0
   10.8461    0.5383    0.0000 C   0  0  0  0  0  0  0  0  0  0  0  0
    9.4605    1.3383    0.0000 C   0  0  0  0  0  0  0  0  0  0  0  0
    9.4605    2.9383    0.0000 O   0  0  0  0  0  0  0  0  0  0  0  0
   10.8461    3.7383    0.0000 C   0  0  0  0  0  0  0  0  0  0  0  0
   12.2318   -1.8617    0.0000 O   0  0  0  0  0  0  0  0  0  0  0  0
   12.2318   -3.4617    0.0000 C   0  0  0  0  0  0  0  0  0  0  0  0
  1  2  2  0  0  0  0
  1  4  1  0  0  0  0
  1 10  1  0  0  0  0
  2  3  1  0  0  0  0
  3  6  2  0  0  0  0
  4  5  2  0  0  0  0
  5  6  1  0  0  0  0
  5  9  1  0  0  0  0
  6  7  1  0  0  0  0
  7  8  1  0  0  0  0
  8  9  2  0  0  0  0
  8 11  1  0  0  0  0
 11 12  1  0  0  0  0
 11 13  2  0  0  0  0
 12 14  1  0  0  0  0
 14 15  1  0  0  0  0
 15 16  1  0  0  0  0
 15 20  2  0  0  0  0
 16 17  2  0  0  0  0
 17 18  1  0  0  0  0
 18 19  2  0  0  0  0
 18 23  1  0  0  0  0
 19 20  1  0  0  0  0
 20 21  1  0  0  0  0
 21 22  1  0  0  0  0
 23 24  1  0  0  0  0
M  END
> <Acceptable>
false

> <IC50>
16.7

$$$$

Generated by Molecular Materials Informatics

 32 36  0  0  0  0  0  0  0  0999 V2000
    1.7976   -3.1135    0.0000 C   0  0  0  0  0  0  0  0  0  0  0  0
    2.9705   -2.0252    0.0000 C   0  0  0  0  0  0  0  0  0  0  0  0
    0.0000    0.0000    0.0000 N   0  0  0  0  0  0  0  0  0  0  0  0
  -13.2247    2.0660    0.0000 C   0  0  0  0  0  0  0  0  0  0  0  0
  -12.8687    0.5061    0.0000 C   0  0  0  0  0  0  0  0  0  0  0  0
  -11.3398    0.0345    0.0000 C   0  0  0  0  0  0  0  0  0  0  0  0
  -12.0518    3.1542    0.0000 C   0  0  0  0  0  0  0  0  0  0  0  0
  -10.5229    2.6826    0.0000 C   0  0  0  0  0  0  0  0  0  0  0  0
  -10.1669    1.1227    0.0000 C   0  0  0  0  0  0  0  0  0  0  0  0
   -8.5733    0.9793    0.0000 O   0  0  0  0  0  0  0  0  0  0  0  0
   -7.9445    2.4506    0.0000 C   0  0  0  0  0  0  0  0  0  0  0  0
   -9.1494    3.5033    0.0000 C   0  0  0  0  0  0  0  0  0  0  0  0
  -14.7536    2.5376    0.0000 Cl  0  0  0  0  0  0  0  0  0  0  0  0
   -6.3846    2.8066    0.0000 C   0  0  0  0  0  0  0  0  0  0  0  0
   -5.2963    1.6337    0.0000 N   0  0  0  0  0  0  0  0  0  0  0  0
   -5.9130    4.3355    0.0000 O   0  0  0  0  0  0  0  0  0  0  0  0
   -3.7364    1.9897    0.0000 C   0  0  0  0  0  0  0  0  0  0  0  0
   -2.6482    0.8169    0.0000 C   0  0  0  0  0  0  0  0  0  0  0  0
   -5.7679    0.1048    0.0000 C   0  0  0  0  0  0  0  0  0  0  0  0
   -1.0883    1.1729    0.0000 C   0  0  0  0  0  0  0  0  0  0  0  0
   -0.5845   -1.4894    0.0000 C   0  0  0  0  0  0  0  0  0  0  0  0
    0.2155   -2.8750    0.0000 C   0  0  0  0  0  0  0  0  0  0  0  0
   -0.5845   -4.2607    0.0000 C   0  0  0  0  0  0  0  0  0  0  0  0
   -2.1845   -4.2607    0.0000 C   0  0  0  0  0  0  0  0  0  0  0  0
   -2.9845   -2.8750    0.0000 C   0  0  0  0  0  0  0  0  0  0  0  0
   -2.1845   -1.4894    0.0000 C   0  0  0  0  0  0  0  0  0  0  0  0
    2.8509   -0.4297    0.0000 C   0  0  0  0  0  0  0  0  0  0  0  0
    1.5289    0.4716    0.0000 C   0  0  0  0  0  0  0  0  0  0  0  0
    1.6485    2.0671    0.0000 C   0  0  0  0  0  0  0  0  0  0  0  0
    3.0900    2.7613    0.0000 C   0  0  0  0  0  0  0  0  0  0  0  0
    4.4120    1.8600    0.0000 C   0  0  0  0  0  0  0  0  0  0  0  0
    4.2924    0.2645    0.0000 C   0  0  0  0  0  0  0  0  0  0  0  0
  1  2  1  0  0  0  0
  1 22  1  0  0  0  0
  2 27  1  0  0  0  0
  3 20  1  0  0  0  0
  3 21  1  0  0  0  0
  3 28  1  0  0  0  0
  4  5  2  0  0  0  0
  4  7  1  0  0  0  0
  4 13  1  0  0  0  0
  5  6  1  0  0  0  0
  6  9  2  0  0  0  0
  7  8  2  0  0  0  0
  8  9  1  0  0  0  0
  8 12  1  0  0  0  0
  9 10  1  0  0  0  0
 10 11  1  0  0  0  0
 11 12  2  0  0  0  0
 11 14  1  0  0  0  0
 14 15  1  0  0  0  0
 14 16  2  0  0  0  0
 15 17  1  0  0  0  0
 15 19  1  0  0  0  0
 17 18  1  0  0  0  0
 18 20  1  0  0  0  0
 21 22  1  0  0  0  0
 21 26  2  0  0  0  0
 22 23  2  0  0  0  0
 23 24  1  0  0  0  0
 24 25  2  0  0  0  0
 25 26  1  0  0  0  0
 27 28  1  0  0  0  0
 27 32  2  0  0  0  0
 28 29  2  0  0  0  0
 29 30  1  0  0  0  0
 30 31  2  0  0  0  0
 31 32  1  0  0  0  0
M  END
> <Acceptable>
true

> <IC50>
20.03

$$$$

Generated by Molecular Materials Informatics

 26 27  0  0  0  0  0  0  0  0999 V2000
   -2.4000    1.3856    0.0000 O   0  0  0  0  0  0  0  0  0  0  0  0
   -4.0000    4.1569    0.0000 O   0  0  0  0  0  0  0  0  0  0  0  0
    0.0000    2.7713    0.0000 O   0  0  0  0  0  0  0  0  0  0  0  0
    0.8000   -4.1569    0.0000 O   0  0  0  0  0  0  0  0  0  0  0  0
   -7.2000    4.1569    0.0000 N   0  0  0  0  0  0  0  0  0  0  0  0
   -4.8000    2.7713    0.0000 C   0  0  0  0  0  0  0  0  0  0  0  0
   -6.4000    2.7713    0.0000 C   0  0  0  0  0  0  0  0  0  0  0  0
   -4.0000    1.3856    0.0000 C   0  0  0  0  0  0  0  0  0  0  0  0
   -8.8000    4.1569    0.0000 C   0  0  0  0  0  0  0  0  0  0  0  0
    2.4000    1.3856    0.0000 C   0  0  0  0  0  0  0  0  0  0  0  0
    3.2000    2.7713    0.0000 C   0  0  0  0  0  0  0  0  0  0  0  0
    0.0000    0.0000    0.0000 C   0  0  0  0  0  0  0  0  0  0  0  0
   -1.6000    0.0000    0.0000 C   0  0  0  0  0  0  0  0  0  0  0  0
   -9.6000    5.5426    0.0000 C   0  0  0  0  0  0  0  0  0  0  0  0
    0.8000    1.3856    0.0000 C   0  0  0  0  0  0  0  0  0  0  0  0
    4.8000    2.7713    0.0000 C   0  0  0  0  0  0  0  0  0  0  0  0
    0.8000   -1.3856    0.0000 C   0  0  0  0  0  0  0  0  0  0  0  0
   -2.4000   -1.3856    0.0000 C   0  0  0  0  0  0  0  0  0  0  0  0
  -11.2000    5.5426    0.0000 C   0  0  0  0  0  0  0  0  0  0  0  0
    0.0000   -2.7713    0.0000 C   0  0  0  0  0  0  0  0  0  0  0  0
   -1.6000   -2.7713    0.0000 C   0  0  0  0  0  0  0  0  0  0  0  0
    5.6000    1.3856    0.0000 C   0  0  0  0  0  0  0  0  0  0  0  0
    5.6000    4.1569    0.0000 C   0  0  0  0  0  0  0  0  0  0  0  0
    7.2000    1.3856    0.0000 C   0  0  0  0  0  0  0  0  0  0  0  0
    7.2000    4.1569    0.0000 C   0  0  0  0  0  0  0  0  0  0  0  0
    8.0000    2.7713    0.0000 C   0  0  0  0  0  0  0  0  0  0  0  0
  1  8  1  0  0  0  0
  1 13  1  0  0  0  0
  6  2  1  1  0  0  0
  3 15  2  0  0  0  0
  4 20  1  0  0  0  0
  5  7  1  0  0  0  0
  5  9  1  0  0  0  0
  6  7  1  0  0  0  0
  6  8  1  0  0  0  0
  9 14  1  0  0  0  0
 10 11  1  0  0  0  0
 10 15  1  0  0  0  0
 11 16  1  0  0  0  0
 12 13  2  0  0  0  0
 12 15  1  0  0  0  0
 12 17  1  0  0  0  0
 13 18  1  0  0  0  0
 14 19  1  0  0  0  0
 16 22  2  0  0  0  0
 16 23  1  0  0  0  0
 17 20  2  0  0  0  0
 18 21  2  0  0  0  0
 20 21  1  0  0  0  0
 22 24  1  0  0  0  0
 23 25  2  0  0  0  0
 24 26  2  0  0  0  0
 25 26  1  0  0  0  0
M  END
> <Acceptable>
false

> <IC50>
107.2

$$$$

Generated by Molecular Materials Informatics

 31 35  0  0  0  0  0  0  0  0999 V2000
   -7.2621    0.8000    0.0000 C   0  0  0  0  0  0  0  0  0  0  0  0
   -6.4621    2.1856    0.0000 C   0  0  0  0  0  0  0  0  0  0  0  0
   -4.8621    2.1856    0.0000 C   0  0  0  0  0  0  0  0  0  0  0  0
   -4.0621    0.8000    0.0000 C   0  0  0  0  0  0  0  0  0  0  0  0
   -4.8621   -0.5856    0.0000 C   0  0  0  0  0  0  0  0  0  0  0  0
   -6.4621   -0.5856    0.0000 C   0  0  0  0  0  0  0  0  0  0  0  0
   -8.8621    0.8000    0.0000 Cl  0  0  0  0  0  0  0  0  0  0  0  0
   -2.4621    0.8000    0.0000 C   0  0  0  0  0  0  0  0  0  0  0  0
    1.3856    2.4000    0.0000 N   0  0  0  0  0  0  0  0  0  0  0  0
    2.7713    1.6000    0.0000 C   0  0  0  0  0  0  0  0  0  0  0  0
    2.7713    0.0000    0.0000 N   0  0  0  0  0  0  0  0  0  0  0  0
    1.3856   -0.8000    0.0000 C   0  0  0  0  0  0  0  0  0  0  0  0
    1.3856   -2.4000    0.0000 O   0  0  0  0  0  0  0  0  0  0  0  0
    0.0000    1.6000    0.0000 C   0  0  0  0  0  0  0  0  0  0  0  0
    0.0000    0.0000    0.0000 C   0  0  0  0  0  0  0  0  0  0  0  0
   -1.5217   -0.4944    0.0000 S   0  0  0  0  0  0  0  0  0  0  0  0
   -1.5217    2.0944    0.0000 C   0  0  0  0  0  0  0  0  0  0  0  0
    4.1569   -0.8000    0.0000 C   0  0  0  0  0  0  0  0  0  0  0  0
    5.5426    0.0000    0.0000 C   0  0  0  0  0  0  0  0  0  0  0  0
    6.9282   -0.8000    0.0000 C   0  0  0  0  0  0  0  0  0  0  0  0
    6.9282   -2.4000    0.0000 C   0  0  0  0  0  0  0  0  0  0  0  0
    5.5426   -3.2000    0.0000 C   0  0  0  0  0  0  0  0  0  0  0  0
    4.1569   -2.4000    0.0000 C   0  0  0  0  0  0  0  0  0  0  0  0
    8.3138   -3.2000    0.0000 N   0  0  0  0  0  0  0  0  0  0  0  0
    9.7755   -2.5492    0.0000 C   0  0  0  0  0  0  0  0  0  0  0  0
   10.8461   -3.7383    0.0000 C   0  0  0  0  0  0  0  0  0  0  0  0
   10.0461   -5.1239    0.0000 C   0  0  0  0  0  0  0  0  0  0  0  0
    8.4811   -4.7912    0.0000 C   0  0  0  0  0  0  0  0  0  0  0  0
   12.4374   -3.5710    0.0000 O   0  0  0  0  0  0  0  0  0  0  0  0
    8.3138    0.0000    0.0000 O   0  0  0  0  0  0  0  0  0  0  0  0
    8.3138    1.6000    0.0000 C   0  0  0  0  0  0  0  0  0  0  0  0
  1  2  1  0  0  0  0
  1  6  2  0  0  0  0
  1  7  1  0  0  0  0
  2  3  2  0  0  0  0
  3  4  1  0  0  0  0
  4  5  2  0  0  0  0
  4  8  1  0  0  0  0
  5  6  1  0  0  0  0
  8 16  1  0  0  0  0
  8 17  2  0  0  0  0
  9 10  2  0  0  0  0
  9 14  1  0  0  0  0
 10 11  1  0  0  0  0
 11 12  1  0  0  0  0
 11 18  1  0  0  0  0
 12 13  2  0  0  0  0
 12 15  1  0  0  0  0
 14 15  2  0  0  0  0
 14 17  1  0  0  0  0
 15 16  1  0  0  0  0
 18 19  1  0  0  0  0
 18 23  2  0  0  0  0
 19 20  2  0  0  0  0
 20 21  1  0  0  0  0
 20 30  1  0  0  0  0
 21 22  2  0  0  0  0
 21 24  1  0  0  0  0
 22 23  1  0  0  0  0
 24 25  1  0  0  0  0
 24 28  1  0  0  0  0
 25 26  1  0  0  0  0
 26 27  1  0  0  0  0
 26 29  1  1  0  0  0
 27 28  1  0  0  0  0
 30 31  1  0  0  0  0
M  END
> <Acceptable>
false

> <IC50>
4.47

$$$$

Generated by Molecular Materials Informatics

 31 35  0  0  0  0  0  0  0  0999 V2000
   -3.5671   -3.2118    0.0000 F   0  0  0  0  0  0  0  0  0  0  0  0
   -2.3781   -2.1412    0.0000 C   0  0  0  0  0  0  0  0  0  0  0  0
   -0.8564   -2.6356    0.0000 C   0  0  0  0  0  0  0  0  0  0  0  0
    0.3327   -1.5650    0.0000 C   0  0  0  0  0  0  0  0  0  0  0  0
    0.0000    0.0000    0.0000 C   0  0  0  0  0  0  0  0  0  0  0  0
   -1.5217    0.4944    0.0000 C   0  0  0  0  0  0  0  0  0  0  0  0
   -1.5217    2.0944    0.0000 O   0  0  0  0  0  0  0  0  0  0  0  0
    0.0000    2.5889    0.0000 N   0  0  0  0  0  0  0  0  0  0  0  0
    0.9405    1.2944    0.0000 C   0  0  0  0  0  0  0  0  0  0  0  0
    2.5405    1.2944    0.0000 C   0  0  0  0  0  0  0  0  0  0  0  0
    3.3405   -0.0912    0.0000 C   0  0  0  0  0  0  0  0  0  0  0  0
    4.9405   -0.0912    0.0000 C   0  0  0  0  0  0  0  0  0  0  0  0
    5.7405    1.2944    0.0000 N   0  0  0  0  0  0  0  0  0  0  0  0
    4.9405    2.6801    0.0000 C   0  0  0  0  0  0  0  0  0  0  0  0
    3.3405    2.6801    0.0000 C   0  0  0  0  0  0  0  0  0  0  0  0
    7.3405    1.2944    0.0000 C   0  0  0  0  0  0  0  0  0  0  0  0
    8.1405   -0.0912    0.0000 C   0  0  0  0  0  0  0  0  0  0  0  0
    9.7405   -0.0912    0.0000 C   0  0  0  0  0  0  0  0  0  0  0  0
   10.5405   -1.4769    0.0000 C   0  0  0  0  0  0  0  0  0  0  0  0
    9.7405   -2.8625    0.0000 O   0  0  0  0  0  0  0  0  0  0  0  0
   12.1405   -1.4769    0.0000 N   0  3  0  0  0  0  0  0  0  0  0  0
   12.9405   -2.8625    0.0000 C   0  0  0  0  0  0  0  0  0  0  0  0
   14.5405   -2.8625    0.0000 C   0  0  0  0  0  0  0  0  0  0  0  0
   15.3405   -1.4769    0.0000 C   0  0  0  0  0  0  0  0  0  0  0  0
   14.5405   -0.0912    0.0000 C   0  0  0  0  0  0  0  0  0  0  0  0
   15.3405    1.2944    0.0000 O   0  0  0  0  0  0  0  0  0  0  0  0
   12.9405   -0.0912    0.0000 C   0  0  0  0  0  0  0  0  0  0  0  0
   12.1405    1.2944    0.0000 N   0  0  0  0  0  0  0  0  0  0  0  0
   10.5405    1.2944    0.0000 C   0  0  0  0  0  0  0  0  0  0  0  0
    9.7405    2.6801    0.0000 C   0  0  0  0  0  0  0  0  0  0  0  0
   -2.7107   -0.5762    0.0000 C   0  0  0  0  0  0  0  0  0  0  0  0
  1  2  1  0  0  0  0
  2  3  1  0  0  0  0
  2 31  2  0  0  0  0
  3  4  2  0  0  0  0
  4  5  1  0  0  0  0
  5  6  2  0  0  0  0
  5  9  1  0  0  0  0
  6  7  1  0  0  0  0
  6 31  1  0  0  0  0
  7  8  1  0  0  0  0
  8  9  2  0  0  0  0
 10  9  1  1  0  0  0
 10 11  1  0  0  0  0
 10 15  1  0  0  0  0
 11 12  1  0  0  0  0
 12 13  1  0  0  0  0
 13 14  1  0  0  0  0
 13 16  1  6  0  0  0
 14 15  1  0  0  0  0
 16 17  1  0  0  0  0
 18 17  1  1  0  0  0
 18 19  1  0  0  0  0
 18 29  1  0  0  0  0
 19 20  2  0  0  0  0
 19 21  1  0  0  0  0
 21 22  1  0  0  0  0
 21 27  2  0  0  0  0
 22 23  1  0  0  0  0
 23 24  1  0  0  0  0
 24 25  1  0  0  0  0
 25 26  1  1  0  0  0
 25 27  1  0  0  0  0
 27 28  1  0  0  0  0
 28 29  2  0  0  0  0
 29 30  1  0  0  0  0
M  CHG  1  21   1
M  END
> <Acceptable>
false

> <IC50>
0.15

$$$$

Generated by Molecular Materials Informatics

 21 24  0  0  0  0  0  0  0  0999 V2000
   -7.6317   -1.4128    0.0000 O   0  0  0  0  0  0  0  0  0  0  0  0
   -6.0667   -1.7455    0.0000 C   0  0  0  0  0  0  0  0  0  0  0  0
   -4.9961   -0.5565    0.0000 C   0  0  0  0  0  0  0  0  0  0  0  0
   -5.3287    1.0086    0.0000 C   0  0  0  0  0  0  0  0  0  0  0  0
   -3.9431    1.8086    0.0000 C   0  0  0  0  0  0  0  0  0  0  0  0
   -2.7541    0.7380    0.0000 C   0  0  0  0  0  0  0  0  0  0  0  0
   -1.1890    1.0706    0.0000 N   0  0  0  0  0  0  0  0  0  0  0  0
   -0.5383    2.5323    0.0000 C   0  0  0  0  0  0  0  0  0  0  0  0
    1.0530    2.3650    0.0000 N   0  0  0  0  0  0  0  0  0  0  0  0
    1.3856    0.8000    0.0000 C   0  0  0  0  0  0  0  0  0  0  0  0
    0.0000    0.0000    0.0000 C   0  0  0  0  0  0  0  0  0  0  0  0
    0.0000   -1.6000    0.0000 N   0  0  0  0  0  0  0  0  0  0  0  0
    1.3856   -2.4000    0.0000 C   0  0  0  0  0  0  0  0  0  0  0  0
    1.3856   -4.0000    0.0000 N   0  0  0  0  0  0  0  0  0  0  0  0
    2.7713   -1.6000    0.0000 N   0  0  0  0  0  0  0  0  0  0  0  0
    2.7713    0.0000    0.0000 C   0  0  0  0  0  0  0  0  0  0  0  0
    4.1569    0.8000    0.0000 N   0  0  0  0  0  0  0  0  0  0  0  0
    5.5426    0.0000    0.0000 C   0  0  0  0  0  0  0  0  0  0  0  0
    7.1426    0.0000    0.0000 C   0  0  0  0  0  0  0  0  0  0  0  0
    6.3426   -1.3856    0.0000 C   0  0  0  0  0  0  0  0  0  0  0  0
   -3.4048   -0.7237    0.0000 C   0  0  0  0  0  0  0  0  0  0  0  0
  1  2  1  0  0  0  0
  3  2  1  6  0  0  0
  3  4  1  0  0  0  0
  3 21  1  0  0  0  0
  4  5  2  0  0  0  0
  5  6  1  0  0  0  0
  6  7  1  6  0  0  0
  6 21  1  0  0  0  0
  7  8  1  0  0  0  0
  7 11  1  0  0  0  0
  8  9  2  0  0  0  0
  9 10  1  0  0  0  0
 10 11  1  0  0  0  0
 10 16  2  0  0  0  0
 11 12  2  0  0  0  0
 12 13  1  0  0  0  0
 13 14  1  0  0  0  0
 13 15  2  0  0  0  0
 15 16  1  0  0  0  0
 16 17  1  0  0  0  0
 17 18  1  0  0  0  0
 18 19  1  0  0  0  0
 18 20  1  0  0  0  0
 19 20  1  0  0  0  0
M  END
> <Acceptable>
true

> <IC50>
N/A

$$$$

Generated by Molecular Materials Informatics

 24 24  0  0  0  0  0  0  0  0999 V2000
    4.0000   -4.1569    0.0000 O   0  0  0  0  0  0  0  0  0  0  0  0
    4.8000   -2.7713    0.0000 C   0  0  0  0  0  0  0  0  0  0  0  0
    4.0000   -1.3856    0.0000 N   0  0  0  0  0  0  0  0  0  0  0  0
    2.4000   -1.3856    0.0000 C   0  0  0  0  0  0  0  0  0  0  0  0
    1.6000   -2.7713    0.0000 C   0  0  0  0  0  0  0  0  0  0  0  0
    0.0000   -2.7713    0.0000 C   0  0  0  0  0  0  0  0  0  0  0  0
   -0.8000   -1.3856    0.0000 C   0  0  0  0  0  0  0  0  0  0  0  0
   -2.4000   -1.3856    0.0000 O   0  0  0  0  0  0  0  0  0  0  0  0
   -3.2000   -2.7713    0.0000 C   0  0  0  0  0  0  0  0  0  0  0  0
   -4.8000   -2.7713    0.0000 C   0  0  0  0  0  0  0  0  0  0  0  0
   -5.6000   -1.3856    0.0000 O   0  0  0  0  0  0  0  0  0  0  0  0
   -5.6000   -4.1569    0.0000 C   0  0  0  0  0  0  0  0  0  0  0  0
   -7.2000   -4.1569    0.0000 N   0  0  0  0  0  0  0  0  0  0  0  0
   -8.0000   -5.5426    0.0000 C   0  0  0  0  0  0  0  0  0  0  0  0
   -7.2000   -6.9282    0.0000 C   0  0  0  0  0  0  0  0  0  0  0  0
   -9.6000   -5.5426    0.0000 C   0  0  0  0  0  0  0  0  0  0  0  0
    0.0000    0.0000    0.0000 C   0  0  0  0  0  0  0  0  0  0  0  0
    1.6000    0.0000    0.0000 C   0  0  0  0  0  0  0  0  0  0  0  0
   -0.8000    1.3856    0.0000 C   0  0  0  0  0  0  0  0  0  0  0  0
   -2.4000    1.3856    0.0000 O   0  0  0  0  0  0  0  0  0  0  0  0
    0.0000    2.7713    0.0000 C   0  0  0  0  0  0  0  0  0  0  0  0
    6.4000   -2.7713    0.0000 C   0  0  0  0  0  0  0  0  0  0  0  0
    7.2000   -4.1569    0.0000 C   0  0  0  0  0  0  0  0  0  0  0  0
    8.8000   -4.1569    0.0000 C   0  0  0  0  0  0  0  0  0  0  0  0
  1  2  2  0  0  0  0
  2  3  1  0  0  0  0
  2 22  1  0  0  0  0
  3  4  1  0  0  0  0
  4  5  1  0  0  0  0
  4 18  2  0  0  0  0
  5  6  2  0  0  0  0
  6  7  1  0  0  0  0
  7  8  1  0  0  0  0
  7 17  2  0  0  0  0
  8  9  1  0  0  0  0
  9 10  1  0  0  0  0
 10 11  1  1  0  0  0
 10 12  1  0  0  0  0
 12 13  1  0  0  0  0
 13 14  1  0  0  0  0
 14 15  1  0  0  0  0
 14 16  1  0  0  0  0
 17 18  1  0  0  0  0
 17 19  1  0  0  0  0
 19 20  2  0  0  0  0
 19 21  1  0  0  0  0
 22 23  1  0  0  0  0
 23 24  1  0  0  0  0
M  END
> <Acceptable>
true

> <IC50>
N/A

$$$$

Generated by Molecular Materials Informatics

 31 37  0  0  0  0  0  0  0  0999 V2000
   -6.8595    1.9934    0.0000 O   0  0  0  0  0  0  0  0  0  0  0  0
   -8.8851    1.6363    0.0000 O   0  0  0  0  0  0  0  0  0  0  0  0
   -8.4595   -3.5491    0.0000 O   0  0  0  0  0  0  0  0  0  0  0  0
    3.0906    2.8928    0.0000 O   0  0  0  0  0  0  0  0  0  0  0  0
  -11.0081   -0.1451    0.0000 O   0  0  0  0  0  0  0  0  0  0  0  0
    4.2178    0.3611    0.0000 O   0  0  0  0  0  0  0  0  0  0  0  0
   -3.6595    1.9934    0.0000 N   0  0  0  0  0  0  0  0  0  0  0  0
    0.0000    0.0000    0.0000 C   0  0  0  0  0  0  0  0  0  0  0  0
   -5.2595   -0.7778    0.0000 C   0  0  0  0  0  0  0  0  0  0  0  0
   -5.2595    1.9934    0.0000 C   0  0  0  0  0  0  0  0  0  0  0  0
   -1.2944    0.9405    0.0000 C   0  0  0  0  0  0  0  0  0  0  0  0
   -6.0595   -2.1635    0.0000 C   0  0  0  0  0  0  0  0  0  0  0  0
   -6.0595    0.6078    0.0000 C   0  0  0  0  0  0  0  0  0  0  0  0
   -2.8595    0.6078    0.0000 C   0  0  0  0  0  0  0  0  0  0  0  0
   -1.1272    2.5317    0.0000 C   0  0  0  0  0  0  0  0  0  0  0  0
   -3.6595   -0.7778    0.0000 C   0  0  0  0  0  0  0  0  0  0  0  0
   -7.6595   -2.1635    0.0000 C   0  0  0  0  0  0  0  0  0  0  0  0
    1.4617    0.6508    0.0000 C   0  0  0  0  0  0  0  0  0  0  0  0
   -2.5889    3.1825    0.0000 C   0  0  0  0  0  0  0  0  0  0  0  0
   -7.6595    0.6078    0.0000 C   0  0  0  0  0  0  0  0  0  0  0  0
   -8.4595   -0.7778    0.0000 C   0  0  0  0  0  0  0  0  0  0  0  0
   -6.2595   -0.1145    0.0000 C   0  0  0  0  0  0  0  0  0  0  0  0
    0.3345    3.1825    0.0000 C   0  0  0  0  0  0  0  0  0  0  0  0
    1.6289    2.2420    0.0000 C   0  0  0  0  0  0  0  0  0  0  0  0
   -7.4595   -0.1145    0.0000 C   0  0  0  0  0  0  0  0  0  0  0  0
   -1.1272    4.1317    0.0000 C   0  0  0  0  0  0  0  0  0  0  0  0
   -7.9213    1.4174    0.0000 C   0  0  0  0  0  0  0  0  0  0  0  0
  -10.4608    1.3584    0.0000 C   0  0  0  0  0  0  0  0  0  0  0  0
    4.3850    1.9523    0.0000 C   0  0  0  0  0  0  0  0  0  0  0  0
  -11.4893    2.5841    0.0000 C   0  0  0  0  0  0  0  0  0  0  0  0
    5.8467    2.6031    0.0000 C   0  0  0  0  0  0  0  0  0  0  0  0
 13  1  1  1  0  0  0
 20  2  1  1  0  0  0
  2 28  1  0  0  0  0
 17  3  1  6  0  0  0
 24  4  1  6  0  0  0
  4 29  1  0  0  0  0
  5 28  2  0  0  0  0
  6 29  2  0  0  0  0
  7 10  1  0  0  0  0
  7 14  1  0  0  0  0
  7 19  1  6  0  0  0
  8 10  1  0  0  0  0
  8 11  1  0  0  0  0
  8 12  1  0  0  0  0
  8 18  1  6  0  0  0
  9 12  1  0  0  0  0
  9 13  1  0  0  0  0
  9 16  1  0  0  0  0
  9 22  1  1  0  0  0
 10 13  1  0  0  0  0
 11 14  1  0  0  0  0
 11 15  1  0  0  0  0
 12 17  1  0  0  0  0
 13 20  1  0  0  0  0
 14 16  1  6  0  0  0
 15 19  1  0  0  0  0
 15 23  1  0  0  0  0
 15 26  1  1  0  0  0
 17 21  1  0  0  0  0
 18 24  1  0  0  0  0
 20 21  1  0  0  0  0
 21 25  1  1  0  0  0
 22 25  1  0  0  0  0
 23 24  1  0  0  0  0
 25 27  2  0  0  0  0
 28 30  1  0  0  0  0
 29 31  1  0  0  0  0
M  END
> <Acceptable>
true

> <IC50>
465.95

$$$$

Generated by Molecular Materials Informatics

 11 11  0  0  0  0  0  0  0  0999 V2000
    2.7713   -1.6000    0.0000 O   0  0  0  0  0  0  0  0  0  0  0  0
    2.7713    0.0000    0.0000 C   0  0  0  0  0  0  0  0  0  0  0  0
    1.3856    0.8000    0.0000 N   0  0  0  0  0  0  0  0  0  0  0  0
    0.0000    0.0000    0.0000 C   0  0  0  0  0  0  0  0  0  0  0  0
    0.0000   -1.6000    0.0000 C   0  0  0  0  0  0  0  0  0  0  0  0
   -1.3856   -2.4000    0.0000 C   0  0  0  0  0  0  0  0  0  0  0  0
   -2.7713   -1.6000    0.0000 C   0  0  0  0  0  0  0  0  0  0  0  0
   -4.1569   -2.4000    0.0000 O   0  0  0  0  0  0  0  0  0  0  0  0
   -2.7713    0.0000    0.0000 C   0  0  0  0  0  0  0  0  0  0  0  0
   -1.3856    0.8000    0.0000 C   0  0  0  0  0  0  0  0  0  0  0  0
    4.1569    0.8000    0.0000 C   0  0  0  0  0  0  0  0  0  0  0  0
  1  2  2  0  0  0  0
  2  3  1  0  0  0  0
  2 11  1  0  0  0  0
  3  4  1  0  0  0  0
  4  5  1  0  0  0  0
  4 10  2  0  0  0  0
  5  6  2  0  0  0  0
  6  7  1  0  0  0  0
  7  8  1  0  0  0  0
  7  9  2  0  0  0  0
  9 10  1  0  0  0  0
M  END
> <Acceptable>
true

> <IC50>
N/A

$$$$

Generated by Molecular Materials Informatics

 13 13  0  0  0  0  0  0  0  0999 V2000
    0.8000    1.3856    0.0000 S   0  0  0  0  0  0  0  0  0  0  0  0
    0.0000    0.0000    0.0000 C   0  0  0  0  0  0  0  0  0  0  0  0
   -1.5912   -0.1672    0.0000 S   0  0  0  0  0  0  0  0  0  0  0  0
   -1.7585    1.4240    0.0000 O   0  0  0  0  0  0  0  0  0  0  0  0
   -1.4240   -1.7585    0.0000 O   0  0  0  0  0  0  0  0  0  0  0  0
   -3.1825   -0.3345    0.0000 N   0  0  0  0  0  0  0  0  0  0  0  0
    1.0706   -1.1890    0.0000 N   0  0  0  0  0  0  0  0  0  0  0  0
    2.5323   -0.5383    0.0000 N   0  0  0  0  0  0  0  0  0  0  0  0
    2.3650    1.0530    0.0000 C   0  0  0  0  0  0  0  0  0  0  0  0
    3.5541    2.1236    0.0000 N   0  0  0  0  0  0  0  0  0  0  0  0
    5.0758    1.6292    0.0000 C   0  0  0  0  0  0  0  0  0  0  0  0
    5.4084    0.0641    0.0000 O   0  0  0  0  0  0  0  0  0  0  0  0
    6.2648    2.6998    0.0000 C   0  0  0  0  0  0  0  0  0  0  0  0
  1  2  1  0  0  0  0
  1  9  1  0  0  0  0
  2  3  1  0  0  0  0
  2  7  2  0  0  0  0
  3  4  2  0  0  0  0
  3  5  2  0  0  0  0
  3  6  1  0  0  0  0
  7  8  1  0  0  0  0
  8  9  2  0  0  0  0
  9 10  1  0  0  0  0
 10 11  1  0  0  0  0
 11 12  2  0  0  0  0
 11 13  1  0  0  0  0
M  END
> <Acceptable>
true

> <IC50>
N/A

$$$$

Generated by Molecular Materials Informatics

 13 13  0  0  0  0  0  0  0  0999 V2000
   -4.8000    0.0000    0.0000 O   0  0  0  0  0  0  0  0  0  0  0  0
   -4.0000    1.3856    0.0000 C   0  0  0  0  0  0  0  0  0  0  0  0
   -2.4000    1.3856    0.0000 O   0  0  0  0  0  0  0  0  0  0  0  0
   -1.6000    0.0000    0.0000 C   0  0  0  0  0  0  0  0  0  0  0  0
   -2.4000   -1.3856    0.0000 C   0  0  0  0  0  0  0  0  0  0  0  0
   -1.6000   -2.7713    0.0000 C   0  0  0  0  0  0  0  0  0  0  0  0
    0.0000   -2.7713    0.0000 C   0  0  0  0  0  0  0  0  0  0  0  0
    0.8000   -1.3856    0.0000 C   0  0  0  0  0  0  0  0  0  0  0  0
    0.0000    0.0000    0.0000 C   0  0  0  0  0  0  0  0  0  0  0  0
    0.8000    1.3856    0.0000 C   0  0  0  0  0  0  0  0  0  0  0  0
    0.0000    2.7713    0.0000 O   0  0  0  0  0  0  0  0  0  0  0  0
    2.4000    1.3856    0.0000 O   0  0  0  0  0  0  0  0  0  0  0  0
   -4.8000    2.7713    0.0000 C   0  0  0  0  0  0  0  0  0  0  0  0
  1  2  2  0  0  0  0
  2  3  1  0  0  0  0
  2 13  1  0  0  0  0
  3  4  1  0  0  0  0
  4  5  1  0  0  0  0
  4  9  2  0  0  0  0
  5  6  2  0  0  0  0
  6  7  1  0  0  0  0
  7  8  2  0  0  0  0
  8  9  1  0  0  0  0
  9 10  1  0  0  0  0
 10 11  2  0  0  0  0
 10 12  1  0  0  0  0
M  END
> <Acceptable>
true

> <IC50>
N/A

$$$$

Generated by Molecular Materials Informatics

 24 24  0  0  0  0  0  0  0  0999 V2000
  -10.1856    2.1856    0.0000 O   0  0  0  0  0  0  0  0  0  0  0  0
  -10.9856    0.8000    0.0000 C   0  0  0  0  0  0  0  0  0  0  0  0
  -12.5856    0.8000    0.0000 O   0  0  0  0  0  0  0  0  0  0  0  0
  -10.1856   -0.5856    0.0000 C   0  0  0  0  0  0  0  0  0  0  0  0
   -8.5856   -0.5856    0.0000 C   0  0  0  0  0  0  0  0  0  0  0  0
   -7.7856    0.8000    0.0000 C   0  0  0  0  0  0  0  0  0  0  0  0
   -7.7856   -1.9713    0.0000 C   0  0  0  0  0  0  0  0  0  0  0  0
   -6.1856   -1.9713    0.0000 C   0  0  0  0  0  0  0  0  0  0  0  0
   -5.3856   -0.5856    0.0000 C   0  0  0  0  0  0  0  0  0  0  0  0
   -3.7856   -0.5856    0.0000 C   0  0  0  0  0  0  0  0  0  0  0  0
   -2.9856   -1.9713    0.0000 C   0  0  0  0  0  0  0  0  0  0  0  0
   -2.9856    0.8000    0.0000 C   0  0  0  0  0  0  0  0  0  0  0  0
   -1.3856    0.8000    0.0000 C   0  0  0  0  0  0  0  0  0  0  0  0
    0.0000    0.0000    0.0000 C   0  0  0  0  0  0  0  0  0  0  0  0
    0.0000   -1.6000    0.0000 C   0  0  0  0  0  0  0  0  0  0  0  0
   -1.3856   -2.4000    0.0000 C   0  0  0  0  0  0  0  0  0  0  0  0
    1.3856   -2.4000    0.0000 C   0  0  0  0  0  0  0  0  0  0  0  0
    2.7713   -1.6000    0.0000 C   0  0  0  0  0  0  0  0  0  0  0  0
    4.1569   -2.4000    0.0000 O   0  0  0  0  0  0  0  0  0  0  0  0
    4.1569   -4.0000    0.0000 C   0  0  0  0  0  0  0  0  0  0  0  0
    2.7713    0.0000    0.0000 C   0  0  0  0  0  0  0  0  0  0  0  0
    4.1569    0.8000    0.0000 C   0  0  0  0  0  0  0  0  0  0  0  0
    1.3856    0.8000    0.0000 C   0  0  0  0  0  0  0  0  0  0  0  0
    1.3856    2.4000    0.0000 C   0  0  0  0  0  0  0  0  0  0  0  0
  1  2  2  0  0  0  0
  2  3  1  0  0  0  0
  2  4  1  0  0  0  0
  4  5  2  0  0  0  0
  5  6  1  0  0  0  0
  5  7  1  0  0  0  0
  7  8  2  0  0  0  0
  8  9  1  0  0  0  0
  9 10  2  0  0  0  0
 10 11  1  0  0  0  0
 10 12  1  0  0  0  0
 12 13  2  0  0  0  0
 13 14  1  0  0  0  0
 14 15  1  0  0  0  0
 14 23  2  0  0  0  0
 15 16  1  0  0  0  0
 15 17  2  0  0  0  0
 17 18  1  0  0  0  0
 18 19  1  0  0  0  0
 18 21  2  0  0  0  0
 19 20  1  0  0  0  0
 21 22  1  0  0  0  0
 21 23  1  0  0  0  0
 23 24  1  0  0  0  0
M  END
> <Acceptable>
true

> <IC50>
N/A

$$$$

Generated by Molecular Materials Informatics

 26 28  0  0  0  0  0  0  0  0999 V2000
   -5.5426    3.2000    0.0000 O   0  0  0  0  0  0  0  0  0  0  0  0
   -6.9282    2.4000    0.0000 C   0  0  0  0  0  0  0  0  0  0  0  0
   -8.3138    3.2000    0.0000 O   0  0  0  0  0  0  0  0  0  0  0  0
   -6.9282    0.8000    0.0000 C   0  0  0  0  0  0  0  0  0  0  0  0
   -5.5426    0.0000    0.0000 C   0  0  0  0  0  0  0  0  0  0  0  0
   -4.1569    0.8000    0.0000 C   0  0  0  0  0  0  0  0  0  0  0  0
   -2.7713    0.0000    0.0000 N   0  0  0  0  0  0  0  0  0  0  0  0
   -1.3856    0.8000    0.0000 C   0  0  0  0  0  0  0  0  0  0  0  0
   -1.3856    2.4000    0.0000 C   0  0  0  0  0  0  0  0  0  0  0  0
   -2.7713    3.2000    0.0000 C   0  0  0  0  0  0  0  0  0  0  0  0
   -4.1569    2.4000    0.0000 C   0  0  0  0  0  0  0  0  0  0  0  0
    0.0000    0.0000    0.0000 C   0  0  0  0  0  0  0  0  0  0  0  0
    0.0000   -1.6000    0.0000 C   0  0  0  0  0  0  0  0  0  0  0  0
   -1.3856   -2.4000    0.0000 C   0  0  0  0  0  0  0  0  0  0  0  0
   -1.3856   -4.0000    0.0000 N   0  0  0  0  0  0  0  0  0  0  0  0
   -2.6801   -4.9405    0.0000 C   0  0  0  0  0  0  0  0  0  0  0  0
   -2.1856   -6.4621    0.0000 C   0  0  0  0  0  0  0  0  0  0  0  0
   -0.5856   -6.4621    0.0000 C   0  0  0  0  0  0  0  0  0  0  0  0
   -0.0912   -4.9405    0.0000 C   0  0  0  0  0  0  0  0  0  0  0  0
    1.3856    0.8000    0.0000 C   0  0  0  0  0  0  0  0  0  0  0  0
    2.7713    0.0000    0.0000 C   0  0  0  0  0  0  0  0  0  0  0  0
    4.1569    0.8000    0.0000 C   0  0  0  0  0  0  0  0  0  0  0  0
    4.1569    2.4000    0.0000 C   0  0  0  0  0  0  0  0  0  0  0  0
    5.5426    3.2000    0.0000 C   0  0  0  0  0  0  0  0  0  0  0  0
    2.7713    3.2000    0.0000 C   0  0  0  0  0  0  0  0  0  0  0  0
    1.3856    2.4000    0.0000 C   0  0  0  0  0  0  0  0  0  0  0  0
  1  2  2  0  0  0  0
  2  3  1  0  0  0  0
  2  4  1  0  0  0  0
  4  5  2  0  0  0  0
  5  6  1  0  0  0  0
  6  7  1  0  0  0  0
  6 11  2  0  0  0  0
  7  8  2  0  0  0  0
  8  9  1  0  0  0  0
  8 12  1  0  0  0  0
  9 10  2  0  0  0  0
 10 11  1  0  0  0  0
 12 13  2  0  0  0  0
 12 20  1  0  0  0  0
 13 14  1  0  0  0  0
 14 15  1  0  0  0  0
 15 16  1  0  0  0  0
 15 19  1  0  0  0  0
 16 17  1  0  0  0  0
 17 18  1  0  0  0  0
 18 19  1  0  0  0  0
 20 21  1  0  0  0  0
 20 26  2  0  0  0  0
 21 22  2  0  0  0  0
 22 23  1  0  0  0  0
 23 24  1  0  0  0  0
 23 25  2  0  0  0  0
 25 26  1  0  0  0  0
M  END
> <Acceptable>
true

> <IC50>
N/A

$$$$

Generated by Molecular Materials Informatics

 16 17  0  0  0  0  0  0  0  0999 V2000
   -3.2000    2.7713    0.0000 O   0  0  0  0  0  0  0  0  0  0  0  0
   -2.4000    1.3856    0.0000 C   0  0  0  0  0  0  0  0  0  0  0  0
   -3.2000    0.0000    0.0000 N   0  0  0  0  0  0  0  0  0  0  0  0
   -2.4000   -1.3856    0.0000 C   0  0  0  0  0  0  0  0  0  0  0  0
   -3.2000   -2.7713    0.0000 N   0  0  0  0  0  0  0  0  0  0  0  0
   -0.8000   -1.3856    0.0000 N   0  0  0  0  0  0  0  0  0  0  0  0
    0.0000    0.0000    0.0000 C   0  0  0  0  0  0  0  0  0  0  0  0
    1.5650    0.3327    0.0000 N   0  0  0  0  0  0  0  0  0  0  0  0
    1.7323    1.9239    0.0000 C   0  0  0  0  0  0  0  0  0  0  0  0
    0.2706    2.5747    0.0000 N   0  0  0  0  0  0  0  0  0  0  0  0
   -0.8000    1.3856    0.0000 C   0  0  0  0  0  0  0  0  0  0  0  0
    2.7541   -0.7380    0.0000 C   0  0  0  0  0  0  0  0  0  0  0  0
    4.2758   -0.2435    0.0000 O   0  0  0  0  0  0  0  0  0  0  0  0
    5.4648   -1.3141    0.0000 C   0  0  0  0  0  0  0  0  0  0  0  0
    6.9865   -0.8197    0.0000 C   0  0  0  0  0  0  0  0  0  0  0  0
    8.1755   -1.8903    0.0000 O   0  0  0  0  0  0  0  0  0  0  0  0
  1  2  2  0  0  0  0
  2  3  1  0  0  0  0
  2 11  1  0  0  0  0
  3  4  2  0  0  0  0
  4  5  1  0  0  0  0
  4  6  1  0  0  0  0
  6  7  1  0  0  0  0
  7  8  1  0  0  0  0
  7 11  2  0  0  0  0
  8  9  1  0  0  0  0
  8 12  1  0  0  0  0
  9 10  2  0  0  0  0
 10 11  1  0  0  0  0
 12 13  1  0  0  0  0
 13 14  1  0  0  0  0
 14 15  1  0  0  0  0
 15 16  1  0  0  0  0
M  END
> <Acceptable>
true

> <IC50>
N/A

$$$$

Generated by Molecular Materials Informatics

 24 27  0  0  0  0  0  0  0  0999 V2000
    1.3856    0.8000    0.0000 C   0  0  0  0  0  0  0  0  0  0  0  0
    0.0000    0.0000    0.0000 N   0  0  0  0  0  0  0  0  0  0  0  0
    1.3856    2.4000    0.0000 C   0  0  0  0  0  0  0  0  0  0  0  0
    2.7713    0.0000    0.0000 C   0  0  0  0  0  0  0  0  0  0  0  0
   -1.3856    0.8000    0.0000 C   0  0  0  0  0  0  0  0  0  0  0  0
   -0.8000   -1.3856    0.0000 C   0  0  0  0  0  0  0  0  0  0  0  0
    0.0000    3.2000    0.0000 C   0  0  0  0  0  0  0  0  0  0  0  0
    2.7713    3.2000    0.0000 C   0  0  0  0  0  0  0  0  0  0  0  0
    4.1569    0.8000    0.0000 C   0  0  0  0  0  0  0  0  0  0  0  0
   -1.3856    2.4000    0.0000 C   0  0  0  0  0  0  0  0  0  0  0  0
   -2.1856   -0.5856    0.0000 S   0  0  0  0  0  0  0  0  0  0  0  0
   -0.3859   -2.9311    0.0000 C   0  0  0  0  0  0  0  0  0  0  0  0
    0.0000    4.8000    0.0000 O   0  0  0  0  0  0  0  0  0  0  0  0
    4.1569    2.4000    0.0000 C   0  0  0  0  0  0  0  0  0  0  0  0
    5.5426    0.0000    0.0000 N   0  0  0  0  0  0  0  0  0  0  0  0
   -2.7713    3.2000    0.0000 C   0  0  0  0  0  0  0  0  0  0  0  0
    5.5426    3.2000    0.0000 F   0  0  0  0  0  0  0  0  0  0  0  0
    6.9282    0.8000    0.0000 C   0  0  0  0  0  0  0  0  0  0  0  0
    5.5426   -1.6000    0.0000 C   0  0  0  0  0  0  0  0  0  0  0  0
   -2.7713    4.8000    0.0000 O   0  0  0  0  0  0  0  0  0  0  0  0
   -4.1569    2.4000    0.0000 O   0  0  0  0  0  0  0  0  0  0  0  0
    8.3138    0.0000    0.0000 C   0  0  0  0  0  0  0  0  0  0  0  0
    6.9282   -2.4000    0.0000 C   0  0  0  0  0  0  0  0  0  0  0  0
    8.3138   -1.6000    0.0000 N   0  0  0  0  0  0  0  0  0  0  0  0
  1  2  1  0  0  0  0
  1  3  2  0  0  0  0
  1  4  1  0  0  0  0
  2  5  1  0  0  0  0
  2  6  1  0  0  0  0
  3  7  1  0  0  0  0
  3  8  1  0  0  0  0
  4  9  2  0  0  0  0
  5 10  2  0  0  0  0
  5 11  1  0  0  0  0
  6 11  1  0  0  0  0
  6 12  1  1  0  0  0
  7 10  1  0  0  0  0
  7 13  2  0  0  0  0
  8 14  2  0  0  0  0
  9 14  1  0  0  0  0
  9 15  1  0  0  0  0
 10 16  1  0  0  0  0
 14 17  1  0  0  0  0
 15 18  1  0  0  0  0
 15 19  1  0  0  0  0
 16 20  1  0  0  0  0
 16 21  2  0  0  0  0
 18 22  1  0  0  0  0
 19 23  1  0  0  0  0
 22 24  1  0  0  0  0
 23 24  1  0  0  0  0
M  END
> <Acceptable>
true

> <IC50>
591.6

$$$$

Generated by Molecular Materials Informatics

 24 29  0  0  0  0  0  0  0  0999 V2000
    0.0000    0.0000    0.0000 C   0  0  0  0  0  0  0  0  0  0  0  0
    0.0000   -1.6000    0.0000 C   0  0  0  0  0  0  0  0  0  0  0  0
    1.8647    1.5110    0.0000 C   0  0  0  0  0  0  0  0  0  0  0  0
   -1.5217    0.4944    0.0000 C   0  0  0  0  0  0  0  0  0  0  0  0
    1.3856    0.8000    0.0000 C   0  0  0  0  0  0  0  0  0  0  0  0
    1.3856   -2.4000    0.0000 C   0  0  0  0  0  0  0  0  0  0  0  0
   -1.5217   -2.0944    0.0000 N   0  0  0  0  0  0  0  0  0  0  0  0
    4.1569    0.8000    0.0000 C   0  0  0  0  0  0  0  0  0  0  0  0
    1.5623    3.0822    0.0000 O   0  0  0  0  0  0  0  0  0  0  0  0
   -2.4621   -0.8000    0.0000 C   0  0  0  0  0  0  0  0  0  0  0  0
   -2.1725    1.9561    0.0000 C   0  0  0  0  0  0  0  0  0  0  0  0
    2.7713    0.0000    0.0000 C   0  0  0  0  0  0  0  0  0  0  0  0
    2.7713   -1.6000    0.0000 N   0  0  0  0  0  0  0  0  0  0  0  0
    4.1041   -2.3085    0.0000 C   0  0  0  0  0  0  0  0  0  0  0  0
   -2.0161   -3.6161    0.0000 C   0  0  0  0  0  0  0  0  0  0  0  0
    5.5426    0.0000    0.0000 C   0  0  0  0  0  0  0  0  0  0  0  0
   -4.0534   -0.6328    0.0000 C   0  0  0  0  0  0  0  0  0  0  0  0
   -3.7637    2.1233    0.0000 C   0  0  0  0  0  0  0  0  0  0  0  0
    4.1569   -2.4000    0.0000 C   0  0  0  0  0  0  0  0  0  0  0  0
    5.5426   -1.6000    0.0000 C   0  0  0  0  0  0  0  0  0  0  0  0
   -4.7042    0.8289    0.0000 C   0  0  0  0  0  0  0  0  0  0  0  0
    4.1569   -4.0000    0.0000 O   0  0  0  0  0  0  0  0  0  0  0  0
    6.9282   -2.4000    0.0000 C   0  0  0  0  0  0  0  0  0  0  0  0
    8.3138   -1.6000    0.0000 C   0  0  0  0  0  0  0  0  0  0  0  0
  1  2  1  0  0  0  0
  1  3  1  0  0  0  0
  1  4  1  0  0  0  0
  1  5  1  6  0  0  0
  2  6  1  6  0  0  0
  2  7  1  0  0  0  0
  3  8  1  0  0  0  0
  3  9  1  6  0  0  0
  4 10  2  0  0  0  0
  4 11  1  0  0  0  0
  5 12  1  0  0  0  0
  6 13  1  0  0  0  0
  6 14  1  0  0  0  0
  7 10  1  0  0  0  0
  7 15  1  0  0  0  0
  8 12  1  1  0  0  0
  8 16  1  0  0  0  0
 10 17  1  0  0  0  0
 11 18  2  0  0  0  0
 13 12  1  6  0  0  0
 13 19  1  0  0  0  0
 16 14  1  6  0  0  0
 16 20  1  0  0  0  0
 17 21  2  0  0  0  0
 18 21  1  0  0  0  0
 19 20  1  0  0  0  0
 19 22  1  1  0  0  0
 20 23  1  6  0  0  0
 23 24  1  0  0  0  0
M  END
> <Acceptable>
false

> <IC50>
1.04

$$$$

Generated by Molecular Materials Informatics

 17 17  0  0  0  0  0  0  0  0999 V2000
   -4.1569    2.4000    0.0000 O   0  0  0  0  0  0  0  0  0  0  0  0
   -4.1569    0.8000    0.0000 C   0  0  0  0  0  0  0  0  0  0  0  0
   -2.7713    0.0000    0.0000 C   0  0  0  0  0  0  0  0  0  0  0  0
   -1.3856    0.8000    0.0000 C   0  0  0  0  0  0  0  0  0  0  0  0
    0.0000    0.0000    0.0000 C   0  0  0  0  0  0  0  0  0  0  0  0
    0.0000   -1.6000    0.0000 C   0  0  0  0  0  0  0  0  0  0  0  0
   -1.3856   -2.4000    0.0000 C   0  0  0  0  0  0  0  0  0  0  0  0
   -2.7713   -1.6000    0.0000 C   0  0  0  0  0  0  0  0  0  0  0  0
   -4.1569   -2.4000    0.0000 O   0  0  0  0  0  0  0  0  0  0  0  0
    1.3856    0.8000    0.0000 C   0  0  0  0  0  0  0  0  0  0  0  0
    1.3856    2.4000    0.0000 O   0  0  0  0  0  0  0  0  0  0  0  0
    2.7713    0.0000    0.0000 C   0  0  0  0  0  0  0  0  0  0  0  0
    4.1569    0.8000    0.0000 N   0  0  0  0  0  0  0  0  0  0  0  0
    5.5426    0.0000    0.0000 C   0  0  0  0  0  0  0  0  0  0  0  0
    5.5426   -1.6000    0.0000 C   0  0  0  0  0  0  0  0  0  0  0  0
    6.9282    0.8000    0.0000 C   0  0  0  0  0  0  0  0  0  0  0  0
    6.9282   -0.8000    0.0000 C   0  0  0  0  0  0  0  0  0  0  0  0
  1  2  1  0  0  0  0
  2  3  1  0  0  0  0
  3  4  1  0  0  0  0
  3  8  2  0  0  0  0
  4  5  2  0  0  0  0
  5  6  1  0  0  0  0
  5 10  1  0  0  0  0
  6  7  2  0  0  0  0
  7  8  1  0  0  0  0
  8  9  1  0  0  0  0
 10 11  1  6  0  0  0
 10 12  1  0  0  0  0
 12 13  1  0  0  0  0
 13 14  1  0  0  0  0
 14 15  1  0  0  0  0
 14 16  1  0  0  0  0
 14 17  1  0  0  0  0
M  END
> <Acceptable>
true

> <IC50>
N/A

$$$$

Generated by Molecular Materials Informatics

 28 30  0  0  0  0  0  0  0  0999 V2000
   11.0851    0.0000    0.0000 O   0  0  0  0  0  0  0  0  0  0  0  0
   11.0851   -1.6000    0.0000 C   0  0  0  0  0  0  0  0  0  0  0  0
    9.6995   -2.4000    0.0000 N   0  0  0  0  0  0  0  0  0  0  0  0
    8.3138   -1.6000    0.0000 C   0  0  0  0  0  0  0  0  0  0  0  0
    6.9282   -2.4000    0.0000 C   0  0  0  0  0  0  0  0  0  0  0  0
    5.5426   -1.6000    0.0000 C   0  0  0  0  0  0  0  0  0  0  0  0
    4.1569   -2.4000    0.0000 N   0  0  0  0  0  0  0  0  0  0  0  0
    4.1569   -4.0000    0.0000 C   0  0  0  0  0  0  0  0  0  0  0  0
    2.7713   -1.6000    0.0000 C   0  0  0  0  0  0  0  0  0  0  0  0
    2.7713    0.0000    0.0000 N   0  0  0  0  0  0  0  0  0  0  0  0
    1.3856    0.8000    0.0000 C   0  0  0  0  0  0  0  0  0  0  0  0
    1.3856    2.4000    0.0000 C   0  0  0  0  0  0  0  0  0  0  0  0
    0.0000    0.0000    0.0000 C   0  0  0  0  0  0  0  0  0  0  0  0
   -1.3856    0.8000    0.0000 C   0  0  0  0  0  0  0  0  0  0  0  0
   -2.7713    0.0000    0.0000 C   0  0  0  0  0  0  0  0  0  0  0  0
   -4.1569    0.8000    0.0000 O   0  0  0  0  0  0  0  0  0  0  0  0
   -4.1569    2.4000    0.0000 C   0  0  0  0  0  0  0  0  0  0  0  0
   -2.7713   -1.6000    0.0000 C   0  0  0  0  0  0  0  0  0  0  0  0
   -4.1569   -2.4000    0.0000 O   0  0  0  0  0  0  0  0  0  0  0  0
   -4.1569   -4.0000    0.0000 C   0  0  0  0  0  0  0  0  0  0  0  0
   -1.3856   -2.4000    0.0000 C   0  0  0  0  0  0  0  0  0  0  0  0
    0.0000   -1.6000    0.0000 C   0  0  0  0  0  0  0  0  0  0  0  0
    1.3856   -2.4000    0.0000 N   0  0  0  0  0  0  0  0  0  0  0  0
   12.4708   -2.4000    0.0000 C   0  0  0  0  0  0  0  0  0  0  0  0
   12.6380   -3.9912    0.0000 O   0  0  0  0  0  0  0  0  0  0  0  0
   14.2030   -4.3239    0.0000 C   0  0  0  0  0  0  0  0  0  0  0  0
   15.0030   -2.9382    0.0000 C   0  0  0  0  0  0  0  0  0  0  0  0
   13.9324   -1.7492    0.0000 C   0  0  0  0  0  0  0  0  0  0  0  0
  1  2  2  0  0  0  0
  2  3  1  0  0  0  0
 24  2  1  1  0  0  0
  3  4  1  0  0  0  0
  4  5  1  0  0  0  0
  5  6  1  0  0  0  0
  6  7  1  0  0  0  0
  7  8  1  0  0  0  0
  7  9  1  0  0  0  0
  9 10  1  0  0  0  0
  9 23  2  0  0  0  0
 10 11  2  0  0  0  0
 11 12  1  0  0  0  0
 11 13  1  0  0  0  0
 13 14  1  0  0  0  0
 13 22  2  0  0  0  0
 14 15  2  0  0  0  0
 15 16  1  0  0  0  0
 15 18  1  0  0  0  0
 16 17  1  0  0  0  0
 18 19  1  0  0  0  0
 18 21  2  0  0  0  0
 19 20  1  0  0  0  0
 21 22  1  0  0  0  0
 22 23  1  0  0  0  0
 24 25  1  0  0  0  0
 24 28  1  0  0  0  0
 25 26  1  0  0  0  0
 26 27  1  0  0  0  0
 27 28  1  0  0  0  0
M  END
> <Acceptable>
true

> <IC50>
83.3

$$$$

Generated by Molecular Materials Informatics

 24 24  0  0  0  0  0  0  0  0999 V2000
  -12.4708    0.8000    0.0000 S   0  0  0  0  0  0  0  0  0  0  0  0
  -12.4708    2.4000    0.0000 O   0  0  0  0  0  0  0  0  0  0  0  0
  -13.8564    0.0000    0.0000 C   0  0  0  0  0  0  0  0  0  0  0  0
  -15.2420    0.8000    0.0000 C   0  0  0  0  0  0  0  0  0  0  0  0
  -16.6277    0.0000    0.0000 C   0  0  0  0  0  0  0  0  0  0  0  0
  -11.0851    0.0000    0.0000 C   0  0  0  0  0  0  0  0  0  0  0  0
   -9.6995    0.8000    0.0000 C   0  0  0  0  0  0  0  0  0  0  0  0
   -8.3138    0.0000    0.0000 C   0  0  0  0  0  0  0  0  0  0  0  0
   -6.9282    0.8000    0.0000 N   0  0  0  0  0  0  0  0  0  0  0  0
   -6.9282    2.4000    0.0000 C   0  0  0  0  0  0  0  0  0  0  0  0
   -8.3138    3.2000    0.0000 C   0  0  0  0  0  0  0  0  0  0  0  0
   -5.5426    0.0000    0.0000 C   0  0  0  0  0  0  0  0  0  0  0  0
   -4.1569    0.8000    0.0000 C   0  0  0  0  0  0  0  0  0  0  0  0
   -4.1569    2.4000    0.0000 O   0  0  0  0  0  0  0  0  0  0  0  0
   -2.7713    0.0000    0.0000 C   0  0  0  0  0  0  0  0  0  0  0  0
   -1.3856    0.8000    0.0000 O   0  0  0  0  0  0  0  0  0  0  0  0
    0.0000    0.0000    0.0000 C   0  0  0  0  0  0  0  0  0  0  0  0
    0.0000   -1.6000    0.0000 C   0  0  0  0  0  0  0  0  0  0  0  0
    1.3856   -2.4000    0.0000 C   0  0  0  0  0  0  0  0  0  0  0  0
    2.7713   -1.6000    0.0000 C   0  0  0  0  0  0  0  0  0  0  0  0
    4.1569   -2.4000    0.0000 C   0  0  0  0  0  0  0  0  0  0  0  0
    5.5426   -3.2000    0.0000 N   0  0  0  0  0  0  0  0  0  0  0  0
    2.7713    0.0000    0.0000 C   0  0  0  0  0  0  0  0  0  0  0  0
    1.3856    0.8000    0.0000 C   0  0  0  0  0  0  0  0  0  0  0  0
  1  2  1  1  0  0  0
  1  3  1  0  0  0  0
  1  6  1  0  0  0  0
  3  4  1  0  0  0  0
  4  5  1  0  0  0  0
  6  7  1  0  0  0  0
  7  8  1  0  0  0  0
  8  9  1  0  0  0  0
  9 10  1  6  0  0  0
  9 12  1  0  0  0  0
 10 11  1  0  0  0  0
 12 13  1  0  0  0  0
 13 14  1  6  0  0  0
 13 15  1  0  0  0  0
 15 16  1  0  0  0  0
 16 17  1  0  0  0  0
 17 18  1  0  0  0  0
 17 24  2  0  0  0  0
 18 19  2  0  0  0  0
 19 20  1  0  0  0  0
 20 21  1  0  0  0  0
 20 23  2  0  0  0  0
 21 22  3  0  0  0  0
 23 24  1  0  0  0  0
M  END
> <Acceptable>
false

> <IC50>
0.44

$$$$

Generated by Molecular Materials Informatics

 22 25  0  0  0  0  0  0  0  0999 V2000
    1.3856    2.4000    0.0000 O   0  0  0  0  0  0  0  0  0  0  0  0
    1.3856    0.8000    0.0000 C   0  0  0  0  0  0  0  0  0  0  0  0
    2.7713    0.0000    0.0000 N   0  0  0  0  0  0  0  0  0  0  0  0
    2.7713   -1.6000    0.0000 C   0  0  0  0  0  0  0  0  0  0  0  0
    1.3856   -2.4000    0.0000 C   0  0  0  0  0  0  0  0  0  0  0  0
    0.0000   -1.6000    0.0000 C   0  0  0  0  0  0  0  0  0  0  0  0
   -1.5217   -2.0944    0.0000 N   0  0  0  0  0  0  0  0  0  0  0  0
   -2.0161   -3.6161    0.0000 C   0  0  0  0  0  0  0  0  0  0  0  0
   -2.4621   -0.8000    0.0000 C   0  0  0  0  0  0  0  0  0  0  0  0
   -4.0534   -0.6328    0.0000 C   0  0  0  0  0  0  0  0  0  0  0  0
   -4.7042    0.8289    0.0000 C   0  0  0  0  0  0  0  0  0  0  0  0
   -3.7637    2.1233    0.0000 C   0  0  0  0  0  0  0  0  0  0  0  0
   -2.1725    1.9561    0.0000 C   0  0  0  0  0  0  0  0  0  0  0  0
   -1.5217    0.4944    0.0000 C   0  0  0  0  0  0  0  0  0  0  0  0
    0.0000    0.0000    0.0000 C   0  0  0  0  0  0  0  0  0  0  0  0
    4.1569    0.8000    0.0000 C   0  0  0  0  0  0  0  0  0  0  0  0
    5.5426    0.0000    0.0000 C   0  0  0  0  0  0  0  0  0  0  0  0
    7.0042    0.6508    0.0000 N   0  0  0  0  0  0  0  0  0  0  0  0
    8.0748   -0.5383    0.0000 C   0  0  0  0  0  0  0  0  0  0  0  0
    7.2748   -1.9239    0.0000 N   0  0  0  0  0  0  0  0  0  0  0  0
    5.7098   -1.5912    0.0000 C   0  0  0  0  0  0  0  0  0  0  0  0
    4.5208   -2.6618    0.0000 C   0  0  0  0  0  0  0  0  0  0  0  0
  1  2  2  0  0  0  0
  2  3  1  0  0  0  0
  2 15  1  0  0  0  0
  3  4  1  0  0  0  0
  3 16  1  0  0  0  0
  4  5  1  0  0  0  0
  5  6  1  0  0  0  0
  6  7  1  0  0  0  0
  6 15  2  0  0  0  0
  7  8  1  0  0  0  0
  7  9  1  0  0  0  0
  9 10  1  0  0  0  0
  9 14  2  0  0  0  0
 10 11  2  0  0  0  0
 11 12  1  0  0  0  0
 12 13  2  0  0  0  0
 13 14  1  0  0  0  0
 14 15  1  0  0  0  0
 16 17  1  0  0  0  0
 17 18  1  0  0  0  0
 17 21  2  0  0  0  0
 18 19  1  0  0  0  0
 19 20  2  0  0  0  0
 20 21  1  0  0  0  0
 21 22  1  0  0  0  0
M  END
> <Acceptable>
false

> <IC50>
3.23

$$$$

Generated by Molecular Materials Informatics

 22 25  0  0  0  0  0  0  0  0999 V2000
    4.1569    2.4000    0.0000 Cl  0  0  0  0  0  0  0  0  0  0  0  0
    2.7713    1.6000    0.0000 C   0  0  0  0  0  0  0  0  0  0  0  0
    1.3856    2.4000    0.0000 C   0  0  0  0  0  0  0  0  0  0  0  0
    0.0000    1.6000    0.0000 C   0  0  0  0  0  0  0  0  0  0  0  0
    0.0000    0.0000    0.0000 C   0  0  0  0  0  0  0  0  0  0  0  0
   -1.4894   -0.5845    0.0000 N   0  0  0  0  0  0  0  0  0  0  0  0
   -1.9610   -2.1135    0.0000 C   0  0  0  0  0  0  0  0  0  0  0  0
   -3.5608   -2.1374    0.0000 N   0  0  0  0  0  0  0  0  0  0  0  0
   -4.0780   -0.6233    0.0000 N   0  0  0  0  0  0  0  0  0  0  0  0
   -2.7977    0.3364    0.0000 C   0  0  0  0  0  0  0  0  0  0  0  0
   -2.8217    1.9363    0.0000 C   0  0  0  0  0  0  0  0  0  0  0  0
   -1.0597   -3.4354    0.0000 C   0  0  0  0  0  0  0  0  0  0  0  0
    0.5358   -3.5550    0.0000 N   0  0  0  0  0  0  0  0  0  0  0  0
    1.6241   -2.3821    0.0000 C   0  0  0  0  0  0  0  0  0  0  0  0
    1.3856   -0.8000    0.0000 C   0  0  0  0  0  0  0  0  0  0  0  0
    2.7713    0.0000    0.0000 C   0  0  0  0  0  0  0  0  0  0  0  0
    3.1530   -2.8537    0.0000 C   0  0  0  0  0  0  0  0  0  0  0  0
    3.5091   -4.4136    0.0000 C   0  0  0  0  0  0  0  0  0  0  0  0
    5.0380   -4.8852    0.0000 C   0  0  0  0  0  0  0  0  0  0  0  0
    6.2109   -3.7970    0.0000 C   0  0  0  0  0  0  0  0  0  0  0  0
    5.8548   -2.2371    0.0000 C   0  0  0  0  0  0  0  0  0  0  0  0
    4.3259   -1.7655    0.0000 C   0  0  0  0  0  0  0  0  0  0  0  0
  1  2  1  0  0  0  0
  2  3  1  0  0  0  0
  2 16  2  0  0  0  0
  3  4  2  0  0  0  0
  4  5  1  0  0  0  0
  5  6  1  0  0  0  0
  5 15  2  0  0  0  0
  6  7  1  0  0  0  0
  6 10  1  0  0  0  0
  7  8  2  0  0  0  0
  7 12  1  0  0  0  0
  8  9  1  0  0  0  0
  9 10  2  0  0  0  0
 10 11  1  0  0  0  0
 12 13  1  0  0  0  0
 13 14  2  0  0  0  0
 14 15  1  0  0  0  0
 14 17  1  0  0  0  0
 15 16  1  0  0  0  0
 17 18  1  0  0  0  0
 17 22  2  0  0  0  0
 18 19  2  0  0  0  0
 19 20  1  0  0  0  0
 20 21  2  0  0  0  0
 21 22  1  0  0  0  0
M  END
> <Acceptable>
true

> <IC50>
N/A

$$$$

Generated by Molecular Materials Informatics

 15 15  0  0  0  0  0  0  0  0999 V2000
    0.0000    1.6000    0.0000 N   0  0  0  0  0  0  0  0  0  0  0  0
    0.0000    0.0000    0.0000 C   0  0  0  0  0  0  0  0  0  0  0  0
   -1.3856   -0.8000    0.0000 N   0  0  0  0  0  0  0  0  0  0  0  0
   -2.7713    0.0000    0.0000 C   0  0  0  0  0  0  0  0  0  0  0  0
   -2.7713    1.6000    0.0000 N   0  0  0  0  0  0  0  0  0  0  0  0
   -1.3856    2.4000    0.0000 C   0  0  0  0  0  0  0  0  0  0  0  0
   -1.3856    4.0000    0.0000 N   0  0  0  0  0  0  0  0  0  0  0  0
   -2.7713    4.8000    0.0000 C   0  0  0  0  0  0  0  0  0  0  0  0
    0.0000    4.8000    0.0000 C   0  0  0  0  0  0  0  0  0  0  0  0
   -4.1569   -0.8000    0.0000 N   0  0  0  0  0  0  0  0  0  0  0  0
   -4.1569   -2.4000    0.0000 C   0  0  0  0  0  0  0  0  0  0  0  0
   -5.5426    0.0000    0.0000 C   0  0  0  0  0  0  0  0  0  0  0  0
    1.3856   -0.8000    0.0000 N   0  0  0  0  0  0  0  0  0  0  0  0
    2.7713    0.0000    0.0000 C   0  0  0  0  0  0  0  0  0  0  0  0
    1.3856   -2.4000    0.0000 C   0  0  0  0  0  0  0  0  0  0  0  0
  1  2  1  0  0  0  0
  1  6  2  0  0  0  0
  2  3  2  0  0  0  0
  2 13  1  0  0  0  0
  3  4  1  0  0  0  0
  4  5  2  0  0  0  0
  4 10  1  0  0  0  0
  5  6  1  0  0  0  0
  6  7  1  0  0  0  0
  7  8  1  0  0  0  0
  7  9  1  0  0  0  0
 10 11  1  0  0  0  0
 10 12  1  0  0  0  0
 13 14  1  0  0  0  0
 13 15  1  0  0  0  0
M  END
> <Acceptable>
true

> <IC50>
N/A

$$$$

Generated by Molecular Materials Informatics

 31 33  0  0  0  0  0  0  0  0999 V2000
   -5.2083   -1.8957    0.0000 O   0  0  0  0  0  0  0  0  0  0  0  0
    6.9282    4.0000    0.0000 O   0  0  0  0  0  0  0  0  0  0  0  0
    8.3138    4.8000    0.0000 O   0  0  0  0  0  0  0  0  0  0  0  0
   11.0851    4.8000    0.0000 O   0  0  0  0  0  0  0  0  0  0  0  0
    2.7713    1.6000    0.0000 N   0  0  0  0  0  0  0  0  0  0  0  0
    8.3138    1.6000    0.0000 N   0  0  0  0  0  0  0  0  0  0  0  0
    0.0000    0.0000    0.0000 C   0  0  0  0  0  0  0  0  0  0  0  0
    1.3856   -0.8000    0.0000 C   0  0  0  0  0  0  0  0  0  0  0  0
    0.0000    1.6000    0.0000 C   0  0  0  0  0  0  0  0  0  0  0  0
    2.7713    0.0000    0.0000 C   0  0  0  0  0  0  0  0  0  0  0  0
    1.3856    2.4000    0.0000 C   0  0  0  0  0  0  0  0  0  0  0  0
   -1.5757    0.2778    0.0000 C   0  0  0  0  0  0  0  0  0  0  0  0
   -0.5472   -1.5035    0.0000 C   0  0  0  0  0  0  0  0  0  0  0  0
    1.3856   -2.4000    0.0000 C   0  0  0  0  0  0  0  0  0  0  0  0
    4.1569    2.4000    0.0000 C   0  0  0  0  0  0  0  0  0  0  0  0
    5.5426    1.6000    0.0000 C   0  0  0  0  0  0  0  0  0  0  0  0
   -2.6042   -0.9478    0.0000 C   0  0  0  0  0  0  0  0  0  0  0  0
   -2.1229    1.7813    0.0000 C   0  0  0  0  0  0  0  0  0  0  0  0
    5.5426    0.0000    0.0000 C   0  0  0  0  0  0  0  0  0  0  0  0
    6.9282    2.4000    0.0000 C   0  0  0  0  0  0  0  0  0  0  0  0
   -4.1798   -0.6700    0.0000 C   0  0  0  0  0  0  0  0  0  0  0  0
   -3.6986    2.0592    0.0000 C   0  0  0  0  0  0  0  0  0  0  0  0
   -4.7271    0.8335    0.0000 C   0  0  0  0  0  0  0  0  0  0  0  0
    6.9282   -0.8000    0.0000 C   0  0  0  0  0  0  0  0  0  0  0  0
    8.3138    0.0000    0.0000 C   0  0  0  0  0  0  0  0  0  0  0  0
    6.9282   -2.4000    0.0000 C   0  0  0  0  0  0  0  0  0  0  0  0
    9.6995    2.4000    0.0000 C   0  0  0  0  0  0  0  0  0  0  0  0
    9.6995   -0.8000    0.0000 C   0  0  0  0  0  0  0  0  0  0  0  0
    8.3138   -3.2000    0.0000 C   0  0  0  0  0  0  0  0  0  0  0  0
    9.6995   -2.4000    0.0000 C   0  0  0  0  0  0  0  0  0  0  0  0
    9.6995    4.0000    0.0000 C   0  0  0  0  0  0  0  0  0  0  0  0
  1 21  1  0  0  0  0
  2 20  2  0  0  0  0
  3 31  1  0  0  0  0
  4 31  2  0  0  0  0
  5 10  1  0  0  0  0
  5 11  1  0  0  0  0
  5 15  1  1  0  0  0
  6 20  1  0  0  0  0
  6 27  1  0  0  0  0
  7  8  1  0  0  0  0
  7  9  1  0  0  0  0
  7 12  1  0  0  0  0
  7 13  1  1  0  0  0
  8 10  1  0  0  0  0
  8 14  1  6  0  0  0
  9 11  1  0  0  0  0
 12 17  2  0  0  0  0
 12 18  1  0  0  0  0
 15 16  1  0  0  0  0
 16 19  1  1  0  0  0
 16 20  1  0  0  0  0
 17 21  1  0  0  0  0
 18 22  2  0  0  0  0
 19 24  1  0  0  0  0
 21 23  2  0  0  0  0
 22 23  1  0  0  0  0
 24 25  2  0  0  0  0
 24 26  1  0  0  0  0
 25 28  1  0  0  0  0
 26 29  2  0  0  0  0
 27 31  1  0  0  0  0
 28 30  2  0  0  0  0
 29 30  1  0  0  0  0
M  END
> <Acceptable>
true

> <IC50>
N/A

$$$$

Generated by Molecular Materials Informatics

 11 13  0  0  0  0  0  0  0  0999 V2000
   -1.6000   -0.0003    0.0000 N   0  0  0  0  0  0  0  0  0  0  0  0
    0.0000    0.0000    0.0000 C   0  0  0  0  0  0  0  0  0  0  0  0
    1.4061    0.0892    0.0000 C   0  0  0  0  0  0  0  0  0  0  0  0
    2.7811    0.1085    0.0000 C   0  0  0  0  0  0  0  0  0  0  0  0
    3.4518   -1.0531    0.0000 C   0  0  0  0  0  0  0  0  0  0  0  0
    4.2350   -2.4482    0.0000 C   0  0  0  0  0  0  0  0  0  0  0  0
    5.6537   -0.0013    0.0000 C   0  0  0  0  0  0  0  0  0  0  0  0
    4.2397    2.4478    0.0000 C   0  0  0  0  0  0  0  0  0  0  0  0
    3.4311    1.2040    0.0000 C   0  0  0  0  0  0  0  0  0  0  0  0
    1.4102    2.4445    0.0000 C   0  0  0  0  0  0  0  0  0  0  0  0
    1.4140   -2.4491    0.0000 C   0  0  0  0  0  0  0  0  0  0  0  0
  2  1  1  1  0  0  0
  2  3  1  0  0  0  0
  2 10  1  0  0  0  0
  2 11  1  0  0  0  0
  3  4  1  0  0  0  0
  4  5  1  0  0  0  0
  4  9  1  6  0  0  0
  5  6  1  0  0  0  0
  6  7  1  6  0  0  0
  6 11  1  0  0  0  0
  7  8  1  0  0  0  0
  8  9  1  1  0  0  0
  8 10  1  0  0  0  0
M  END
> <Acceptable>
true

> <IC50>
N/A

$$$$

Generated by Molecular Materials Informatics

 25 28  0  0  0  0  0  0  0  0999 V2000
    0.6481    2.6944    0.0000 O   0  0  0  0  0  0  0  0  0  0  0  0
    1.1019    1.1601    0.0000 C   0  0  0  0  0  0  0  0  0  0  0  0
    0.0000    0.0000    0.0000 N   0  0  0  0  0  0  0  0  0  0  0  0
   -0.3527   -1.6040    0.0000 C   0  0  0  0  0  0  0  0  0  0  0  0
   -2.2920   -1.5117    0.0000 C   0  0  0  0  0  0  0  0  0  0  0  0
   -2.2710    0.3747    0.0000 C   0  0  0  0  0  0  0  0  0  0  0  0
   -1.4372    1.3661    0.0000 N   0  0  0  0  0  0  0  0  0  0  0  0
   -3.0130    1.1167    0.0000 C   0  0  0  0  0  0  0  0  0  0  0  0
   -3.0143   -0.6891    0.0000 C   0  0  0  0  0  0  0  0  0  0  0  0
   -1.1415   -0.8098    0.0000 C   0  0  0  0  0  0  0  0  0  0  0  0
   -3.8711   -1.7695    0.0000 C   0  0  0  0  0  0  0  0  0  0  0  0
   -0.0442    2.1531    0.0000 C   0  0  0  0  0  0  0  0  0  0  0  0
   -0.0292    3.7530    0.0000 C   0  0  0  0  0  0  0  0  0  0  0  0
    1.3639    4.5400    0.0000 C   0  0  0  0  0  0  0  0  0  0  0  0
    1.3789    6.1399    0.0000 C   0  0  0  0  0  0  0  0  0  0  0  0
    0.0008    6.9529    0.0000 C   0  0  0  0  0  0  0  0  0  0  0  0
   -1.3923    6.1659    0.0000 C   0  0  0  0  0  0  0  0  0  0  0  0
   -1.4073    4.5659    0.0000 C   0  0  0  0  0  0  0  0  0  0  0  0
    2.6575    0.7859    0.0000 C   0  0  0  0  0  0  0  0  0  0  0  0
    3.1113   -0.7484    0.0000 C   0  0  0  0  0  0  0  0  0  0  0  0
    4.6669   -1.1225    0.0000 C   0  0  0  0  0  0  0  0  0  0  0  0
    5.7688    0.0376    0.0000 C   0  0  0  0  0  0  0  0  0  0  0  0
    7.3244   -0.3366    0.0000 N   0  0  0  0  0  0  0  0  0  0  0  0
    5.3150    1.5719    0.0000 C   0  0  0  0  0  0  0  0  0  0  0  0
    3.7594    1.9461    0.0000 C   0  0  0  0  0  0  0  0  0  0  0  0
  1  2  2  0  0  0  0
  2  3  1  0  0  0  0
  2 19  1  0  0  0  0
  3  4  1  0  0  0  0
  3 10  1  0  0  0  0
  4  5  1  0  0  0  0
  5  6  1  1  0  0  0
  5 11  1  0  0  0  0
  6  7  1  0  0  0  0
  7  8  1  0  0  0  0
  7 12  1  6  0  0  0
  8  9  1  0  0  0  0
  9 10  1  6  0  0  0
  9 11  1  0  0  0  0
 12 13  1  0  0  0  0
 13 14  1  0  0  0  0
 13 18  2  0  0  0  0
 14 15  2  0  0  0  0
 15 16  1  0  0  0  0
 16 17  2  0  0  0  0
 17 18  1  0  0  0  0
 19 20  1  0  0  0  0
 19 25  2  0  0  0  0
 20 21  2  0  0  0  0
 21 22  1  0  0  0  0
 22 23  1  0  0  0  0
 22 24  2  0  0  0  0
 24 25  1  0  0  0  0
M  END
> <Acceptable>
false

> <IC50>
3.63

$$$$

Generated by Molecular Materials Informatics

 28 30  0  0  0  0  0  0  0  0999 V2000
    0.2778    1.5757    0.0000 O   0  0  0  0  0  0  0  0  0  0  0  0
    2.4000   -1.3856    0.0000 O   0  0  0  0  0  0  0  0  0  0  0  0
    4.0000    1.3856    0.0000 O   0  0  0  0  0  0  0  0  0  0  0  0
    1.6000    2.7713    0.0000 O   0  0  0  0  0  0  0  0  0  0  0  0
    4.8000    0.0000    0.0000 N   0  0  0  0  0  0  0  0  0  0  0  0
    4.8000   -2.7713    0.0000 N   0  0  0  0  0  0  0  0  0  0  0  0
    0.0000    0.0000    0.0000 C   0  0  0  0  0  0  0  0  0  0  0  0
    1.6000    0.0000    0.0000 C   0  0  0  0  0  0  0  0  0  0  0  0
   -0.2778   -1.5757    0.0000 C   0  0  0  0  0  0  0  0  0  0  0  0
   -1.5757    0.2778    0.0000 C   0  0  0  0  0  0  0  0  0  0  0  0
    0.9478   -2.6042    0.0000 C   0  0  0  0  0  0  0  0  0  0  0  0
   -2.6042   -0.9478    0.0000 C   0  0  0  0  0  0  0  0  0  0  0  0
   -1.7813   -2.1229    0.0000 C   0  0  0  0  0  0  0  0  0  0  0  0
   -2.1229    1.7813    0.0000 C   0  0  0  0  0  0  0  0  0  0  0  0
    2.4000    1.3856    0.0000 C   0  0  0  0  0  0  0  0  0  0  0  0
   -0.9478    2.6042    0.0000 C   0  0  0  0  0  0  0  0  0  0  0  0
    0.6700   -4.1798    0.0000 C   0  0  0  0  0  0  0  0  0  0  0  0
   -4.1798   -0.6700    0.0000 C   0  0  0  0  0  0  0  0  0  0  0  0
   -2.0592   -3.6986    0.0000 C   0  0  0  0  0  0  0  0  0  0  0  0
   -3.6986    2.0592    0.0000 C   0  0  0  0  0  0  0  0  0  0  0  0
   -0.8335   -4.7271    0.0000 C   0  0  0  0  0  0  0  0  0  0  0  0
   -4.7271    0.8335    0.0000 C   0  0  0  0  0  0  0  0  0  0  0  0
    4.0000   -1.3856    0.0000 C   0  0  0  0  0  0  0  0  0  0  0  0
    6.4000    0.0000    0.0000 C   0  0  0  0  0  0  0  0  0  0  0  0
    6.4000   -2.7713    0.0000 C   0  0  0  0  0  0  0  0  0  0  0  0
    7.2000   -1.3856    0.0000 C   0  0  0  0  0  0  0  0  0  0  0  0
    7.2000    1.3856    0.0000 C   0  0  0  0  0  0  0  0  0  0  0  0
    7.2000   -4.1569    0.0000 C   0  0  0  0  0  0  0  0  0  0  0  0
  1  7  1  0  0  0  0
  1 16  1  0  0  0  0
  2  8  1  0  0  0  0
  2 23  1  0  0  0  0
  3 15  1  0  0  0  0
  4 15  2  0  0  0  0
  5 23  2  0  0  0  0
  5 24  1  0  0  0  0
  6 23  1  0  0  0  0
  6 25  2  0  0  0  0
  7  8  1  0  0  0  0
  7  9  1  0  0  0  0
  7 10  1  0  0  0  0
  8 15  1  1  0  0  0
  9 11  2  0  0  0  0
  9 13  1  0  0  0  0
 10 12  2  0  0  0  0
 10 14  1  0  0  0  0
 11 17  1  0  0  0  0
 12 18  1  0  0  0  0
 13 19  2  0  0  0  0
 14 20  2  0  0  0  0
 17 21  2  0  0  0  0
 18 22  2  0  0  0  0
 19 21  1  0  0  0  0
 20 22  1  0  0  0  0
 24 26  2  0  0  0  0
 24 27  1  0  0  0  0
 25 26  1  0  0  0  0
 25 28  1  0  0  0  0
M  END
> <Acceptable>
true

> <IC50>
N/A

$$$$

Generated by Molecular Materials Informatics

 15 15  0  0  0  0  0  0  0  0999 V2000
   -3.2000    2.7713    0.0000 Cl  0  0  0  0  0  0  0  0  0  0  0  0
   -2.4000    1.3856    0.0000 C   0  0  0  0  0  0  0  0  0  0  0  0
   -0.8000    1.3856    0.0000 N   0  0  0  0  0  0  0  0  0  0  0  0
    0.0000    0.0000    0.0000 C   0  0  0  0  0  0  0  0  0  0  0  0
   -0.8000   -1.3856    0.0000 C   0  0  0  0  0  0  0  0  0  0  0  0
    0.0000   -2.7713    0.0000 N   0  0  0  0  0  0  0  0  0  0  0  0
   -2.4000   -1.3856    0.0000 N   0  0  0  0  0  0  0  0  0  0  0  0
   -3.2000    0.0000    0.0000 C   0  0  0  0  0  0  0  0  0  0  0  0
   -4.8000    0.0000    0.0000 N   0  0  0  0  0  0  0  0  0  0  0  0
    1.6000    0.0000    0.0000 C   0  0  0  0  0  0  0  0  0  0  0  0
    2.4000   -1.3856    0.0000 O   0  0  0  0  0  0  0  0  0  0  0  0
    2.4000    1.3856    0.0000 N   0  0  0  0  0  0  0  0  0  0  0  0
    4.0000    1.3856    0.0000 C   0  0  0  0  0  0  0  0  0  0  0  0
    4.8000    0.0000    0.0000 N   0  0  0  0  0  0  0  0  0  0  0  0
    4.8000    2.7713    0.0000 N   0  0  0  0  0  0  0  0  0  0  0  0
  1  2  1  0  0  0  0
  2  3  1  0  0  0  0
  2  8  2  0  0  0  0
  3  4  2  0  0  0  0
  4  5  1  0  0  0  0
  4 10  1  0  0  0  0
  5  6  1  0  0  0  0
  5  7  2  0  0  0  0
  7  8  1  0  0  0  0
  8  9  1  0  0  0  0
 10 11  2  0  0  0  0
 10 12  1  0  0  0  0
 12 13  1  0  0  0  0
 13 14  2  0  0  0  0
 13 15  1  0  0  0  0
M  END
> <Acceptable>
true

> <IC50>
N/A

$$$$

Generated by Molecular Materials Informatics

 10 10  0  0  0  0  0  0  0  0999 V2000
   -2.4000    1.3856    0.0000 O   0  0  0  0  0  0  0  0  0  0  0  0
   -1.6000    0.0000    0.0000 C   0  0  0  0  0  0  0  0  0  0  0  0
   -2.4000   -1.3856    0.0000 O   0  0  0  0  0  0  0  0  0  0  0  0
    0.0000    0.0000    0.0000 C   0  0  0  0  0  0  0  0  0  0  0  0
    0.8000   -1.3856    0.0000 C   0  0  0  0  0  0  0  0  0  0  0  0
    2.4000   -1.3856    0.0000 C   0  0  0  0  0  0  0  0  0  0  0  0
    3.2000    0.0000    0.0000 C   0  0  0  0  0  0  0  0  0  0  0  0
    4.8000    0.0000    0.0000 N   0  0  0  0  0  0  0  0  0  0  0  0
    2.4000    1.3856    0.0000 C   0  0  0  0  0  0  0  0  0  0  0  0
    0.8000    1.3856    0.0000 C   0  0  0  0  0  0  0  0  0  0  0  0
  1  2  2  0  0  0  0
  2  3  1  0  0  0  0
  2  4  1  0  0  0  0
  4  5  1  0  0  0  0
  4 10  2  0  0  0  0
  5  6  2  0  0  0  0
  6  7  1  0  0  0  0
  7  8  1  0  0  0  0
  7  9  2  0  0  0  0
  9 10  1  0  0  0  0
M  END
> <Acceptable>
true

> <IC50>
N/A

$$$$

Generated by Molecular Materials Informatics

 32 35  0  0  0  0  0  0  0  0999 V2000
   -9.6000    0.0000    0.0000 C   0  0  0  0  0  0  0  0  0  0  0  0
  -10.4000   -1.3856    0.0000 C   0  0  0  0  0  0  0  0  0  0  0  0
   -9.6000   -2.7713    0.0000 C   0  0  0  0  0  0  0  0  0  0  0  0
   -8.0000   -2.7713    0.0000 C   0  0  0  0  0  0  0  0  0  0  0  0
   -7.2000   -1.3856    0.0000 C   0  0  0  0  0  0  0  0  0  0  0  0
   -8.0000    0.0000    0.0000 C   0  0  0  0  0  0  0  0  0  0  0  0
  -12.0000   -1.3856    0.0000 F   0  0  0  0  0  0  0  0  0  0  0  0
   -5.6000   -1.3856    0.0000 C   0  0  0  0  0  0  0  0  0  0  0  0
   -4.8000    0.0000    0.0000 C   0  0  0  0  0  0  0  0  0  0  0  0
   -3.2000    0.0000    0.0000 N   0  0  0  0  0  0  0  0  0  0  0  0
   -2.4000   -1.3856    0.0000 C   0  0  0  0  0  0  0  0  0  0  0  0
   -0.8000   -1.3856    0.0000 C   0  0  0  0  0  0  0  0  0  0  0  0
    0.0000    0.0000    0.0000 N   0  0  0  0  0  0  0  0  0  0  0  0
   -0.8000    1.3856    0.0000 C   0  0  0  0  0  0  0  0  0  0  0  0
   -2.4000    1.3856    0.0000 C   0  0  0  0  0  0  0  0  0  0  0  0
    1.6000    0.0000    0.0000 C   0  0  0  0  0  0  0  0  0  0  0  0
    2.4000   -1.3856    0.0000 C   0  0  0  0  0  0  0  0  0  0  0  0
    4.0000    1.3856    0.0000 C   0  0  0  0  0  0  0  0  0  0  0  0
    2.4000    1.3856    0.0000 C   0  0  0  0  0  0  0  0  0  0  0  0
    4.8000    0.0000    0.0000 C   0  0  0  0  0  0  0  0  0  0  0  0
    4.0000   -1.3856    0.0000 C   0  0  0  0  0  0  0  0  0  0  0  0
    4.8000   -2.7713    0.0000 C   0  0  0  0  0  0  0  0  0  0  0  0
    6.4000   -2.7713    0.0000 C   0  0  0  0  0  0  0  0  0  0  0  0
    7.2000   -1.3856    0.0000 C   0  0  0  0  0  0  0  0  0  0  0  0
    6.4000    0.0000    0.0000 C   0  0  0  0  0  0  0  0  0  0  0  0
    8.8000   -1.3856    0.0000 C   0  0  0  0  0  0  0  0  0  0  0  0
    9.6000   -2.7713    0.0000 N   0  0  0  0  0  0  0  0  0  0  0  0
    8.8000   -4.1569    0.0000 C   0  0  0  0  0  0  0  0  0  0  0  0
   11.2000   -2.7713    0.0000 C   0  0  0  0  0  0  0  0  0  0  0  0
    9.6000   -5.5426    0.0000 C   0  0  0  0  0  0  0  0  0  0  0  0
   12.0000   -4.1569    0.0000 C   0  0  0  0  0  0  0  0  0  0  0  0
    0.0000    2.7713    0.0000 O   0  0  0  0  0  0  0  0  0  0  0  0
  1  2  1  0  0  0  0
  1  6  2  0  0  0  0
  2  3  2  0  0  0  0
  2  7  1  0  0  0  0
  3  4  1  0  0  0  0
  4  5  2  0  0  0  0
  5  6  1  0  0  0  0
  5  8  1  0  0  0  0
  8  9  1  0  0  0  0
 10  9  1  1  0  0  0
 10 11  1  0  0  0  0
 10 15  1  0  0  0  0
 11 12  1  0  0  0  0
 12 13  1  0  0  0  0
 13 14  1  0  0  0  0
 16 13  1  1  0  0  0
 14 15  1  0  0  0  0
 14 32  2  0  0  0  0
 16 17  1  0  0  0  0
 16 19  1  0  0  0  0
 17 21  1  0  0  0  0
 18 19  1  0  0  0  0
 18 20  1  0  0  0  0
 20 21  1  0  0  0  0
 20 25  2  0  0  0  0
 21 22  2  0  0  0  0
 22 23  1  0  0  0  0
 23 24  2  0  0  0  0
 24 25  1  0  0  0  0
 24 26  1  0  0  0  0
 26 27  1  0  0  0  0
 27 28  1  0  0  0  0
 27 29  1  0  0  0  0
 28 30  1  0  0  0  0
 29 31  1  0  0  0  0
M  END
> <Acceptable>
false

> <IC50>
8.1

$$$$

Generated by Molecular Materials Informatics

 32 35  0  0  0  0  0  0  0  0999 V2000
   -9.6000    0.0000    0.0000 C   0  0  0  0  0  0  0  0  0  0  0  0
  -10.4000   -1.3856    0.0000 C   0  0  0  0  0  0  0  0  0  0  0  0
   -9.6000   -2.7713    0.0000 C   0  0  0  0  0  0  0  0  0  0  0  0
   -8.0000   -2.7713    0.0000 C   0  0  0  0  0  0  0  0  0  0  0  0
   -7.2000   -1.3856    0.0000 C   0  0  0  0  0  0  0  0  0  0  0  0
   -8.0000    0.0000    0.0000 C   0  0  0  0  0  0  0  0  0  0  0  0
  -12.0000   -1.3856    0.0000 Cl  0  0  0  0  0  0  0  0  0  0  0  0
   -5.6000   -1.3856    0.0000 C   0  0  0  0  0  0  0  0  0  0  0  0
   -4.8000    0.0000    0.0000 C   0  0  0  0  0  0  0  0  0  0  0  0
   -3.2000    0.0000    0.0000 N   0  0  0  0  0  0  0  0  0  0  0  0
   -2.4000   -1.3856    0.0000 C   0  0  0  0  0  0  0  0  0  0  0  0
   -0.8000   -1.3856    0.0000 C   0  0  0  0  0  0  0  0  0  0  0  0
    0.0000    0.0000    0.0000 N   0  0  0  0  0  0  0  0  0  0  0  0
   -0.8000    1.3856    0.0000 C   0  0  0  0  0  0  0  0  0  0  0  0
   -2.4000    1.3856    0.0000 C   0  0  0  0  0  0  0  0  0  0  0  0
    1.6000    0.0000    0.0000 C   0  0  0  0  0  0  0  0  0  0  0  0
    2.4000   -1.3856    0.0000 C   0  0  0  0  0  0  0  0  0  0  0  0
    4.0000    1.3856    0.0000 C   0  0  0  0  0  0  0  0  0  0  0  0
    2.4000    1.3856    0.0000 C   0  0  0  0  0  0  0  0  0  0  0  0
    4.8000    0.0000    0.0000 C   0  0  0  0  0  0  0  0  0  0  0  0
    4.0000   -1.3856    0.0000 C   0  0  0  0  0  0  0  0  0  0  0  0
    4.8000   -2.7713    0.0000 C   0  0  0  0  0  0  0  0  0  0  0  0
    6.4000   -2.7713    0.0000 C   0  0  0  0  0  0  0  0  0  0  0  0
    7.2000   -1.3856    0.0000 C   0  0  0  0  0  0  0  0  0  0  0  0
    6.4000    0.0000    0.0000 C   0  0  0  0  0  0  0  0  0  0  0  0
    8.8000   -1.3856    0.0000 C   0  0  0  0  0  0  0  0  0  0  0  0
    9.6000   -2.7713    0.0000 N   0  0  0  0  0  0  0  0  0  0  0  0
    8.8000   -4.1569    0.0000 C   0  0  0  0  0  0  0  0  0  0  0  0
   11.2000   -2.7713    0.0000 C   0  0  0  0  0  0  0  0  0  0  0  0
    9.6000   -5.5426    0.0000 C   0  0  0  0  0  0  0  0  0  0  0  0
   12.0000   -4.1569    0.0000 C   0  0  0  0  0  0  0  0  0  0  0  0
    0.0000    2.7713    0.0000 O   0  0  0  0  0  0  0  0  0  0  0  0
  1  2  1  0  0  0  0
  1  6  2  0  0  0  0
  2  3  2  0  0  0  0
  2  7  1  0  0  0  0
  3  4  1  0  0  0  0
  4  5  2  0  0  0  0
  5  6  1  0  0  0  0
  5  8  1  0  0  0  0
  8  9  1  0  0  0  0
 10  9  1  1  0  0  0
 10 11  1  0  0  0  0
 10 15  1  0  0  0  0
 11 12  1  0  0  0  0
 12 13  1  0  0  0  0
 13 14  1  0  0  0  0
 16 13  1  1  0  0  0
 14 15  1  0  0  0  0
 14 32  2  0  0  0  0
 16 17  1  0  0  0  0
 16 19  1  0  0  0  0
 17 21  1  0  0  0  0
 18 19  1  0  0  0  0
 18 20  1  0  0  0  0
 20 21  1  0  0  0  0
 20 25  2  0  0  0  0
 21 22  2  0  0  0  0
 22 23  1  0  0  0  0
 23 24  2  0  0  0  0
 24 25  1  0  0  0  0
 24 26  1  0  0  0  0
 26 27  1  0  0  0  0
 27 28  1  0  0  0  0
 27 29  1  0  0  0  0
 28 30  1  0  0  0  0
 29 31  1  0  0  0  0
M  END
> <Acceptable>
false

> <IC50>
3.3

$$$$

Generated by Molecular Materials Informatics

 36 39  0  0  0  0  0  0  0  0999 V2000
   -2.4000    1.3856    0.0000 C   0  0  0  0  0  0  0  0  0  0  0  0
   -1.6000    0.0000    0.0000 C   0  0  0  0  0  0  0  0  0  0  0  0
   -2.4000   -1.3856    0.0000 C   0  0  0  0  0  0  0  0  0  0  0  0
   -4.0000    1.3856    0.0000 C   0  0  0  0  0  0  0  0  0  0  0  0
   -4.8000    0.0000    0.0000 C   0  0  0  0  0  0  0  0  0  0  0  0
   -4.0000   -1.3856    0.0000 C   0  0  0  0  0  0  0  0  0  0  0  0
   -4.8000   -2.7713    0.0000 C   0  0  0  0  0  0  0  0  0  0  0  0
   -6.4000   -2.7713    0.0000 C   0  0  0  0  0  0  0  0  0  0  0  0
   -7.2000   -1.3856    0.0000 C   0  0  0  0  0  0  0  0  0  0  0  0
   -6.4000    0.0000    0.0000 C   0  0  0  0  0  0  0  0  0  0  0  0
   -8.8000   -1.3856    0.0000 C   0  0  0  0  0  0  0  0  0  0  0  0
   -9.6000   -2.7713    0.0000 N   0  0  0  0  0  0  0  0  0  0  0  0
   -8.8000   -4.1569    0.0000 C   0  0  0  0  0  0  0  0  0  0  0  0
  -11.2000   -2.7713    0.0000 C   0  0  0  0  0  0  0  0  0  0  0  0
  -12.0000   -4.1569    0.0000 C   0  0  0  0  0  0  0  0  0  0  0  0
   -9.6000   -5.5426    0.0000 C   0  0  0  0  0  0  0  0  0  0  0  0
    0.0000    0.0000    0.0000 N   0  0  0  0  0  0  0  0  0  0  0  0
    0.8000    1.3856    0.0000 C   0  0  0  0  0  0  0  0  0  0  0  0
    2.4000    1.3856    0.0000 C   0  0  0  0  0  0  0  0  0  0  0  0
    3.2000    0.0000    0.0000 N   0  0  0  0  0  0  0  0  0  0  0  0
    2.4000   -1.3856    0.0000 C   0  0  0  0  0  0  0  0  0  0  0  0
    0.8000   -1.3856    0.0000 C   0  0  0  0  0  0  0  0  0  0  0  0
    0.0000    2.7713    0.0000 O   0  0  0  0  0  0  0  0  0  0  0  0
    4.8000    0.0000    0.0000 C   0  0  0  0  0  0  0  0  0  0  0  0
    5.6000   -1.3856    0.0000 C   0  0  0  0  0  0  0  0  0  0  0  0
    7.2000   -1.3856    0.0000 C   0  0  0  0  0  0  0  0  0  0  0  0
    8.0000    0.0000    0.0000 C   0  0  0  0  0  0  0  0  0  0  0  0
    9.6000    0.0000    0.0000 C   0  0  0  0  0  0  0  0  0  0  0  0
   10.4000   -1.3856    0.0000 C   0  0  0  0  0  0  0  0  0  0  0  0
    9.6000   -2.7713    0.0000 C   0  0  0  0  0  0  0  0  0  0  0  0
    8.0000   -2.7713    0.0000 C   0  0  0  0  0  0  0  0  0  0  0  0
   10.4000   -4.1569    0.0000 C   0  0  0  0  0  0  0  0  0  0  0  0
    9.6000   -5.5426    0.0000 F   0  0  0  0  0  0  0  0  0  0  0  0
   12.0000   -4.1569    0.0000 F   0  0  0  0  0  0  0  0  0  0  0  0
   11.2000   -5.5426    0.0000 F   0  0  0  0  0  0  0  0  0  0  0  0
   10.4000    1.3856    0.0000 N   0  0  0  0  0  0  0  0  0  0  0  0
  1  2  1  0  0  0  0
  1  4  1  0  0  0  0
  2  3  1  0  0  0  0
  2 17  1  6  0  0  0
  3  6  1  0  0  0  0
  4  5  1  0  0  0  0
  5  6  1  0  0  0  0
  5 10  2  0  0  0  0
  6  7  2  0  0  0  0
  7  8  1  0  0  0  0
  8  9  2  0  0  0  0
  9 10  1  0  0  0  0
  9 11  1  0  0  0  0
 11 12  1  0  0  0  0
 12 13  1  0  0  0  0
 12 14  1  0  0  0  0
 13 16  1  0  0  0  0
 14 15  1  0  0  0  0
 17 18  1  0  0  0  0
 17 22  1  0  0  0  0
 18 19  1  0  0  0  0
 18 23  2  0  0  0  0
 19 20  1  0  0  0  0
 20 21  1  0  0  0  0
 20 24  1  6  0  0  0
 21 22  1  0  0  0  0
 24 25  1  0  0  0  0
 25 26  1  0  0  0  0
 26 27  1  0  0  0  0
 26 31  2  0  0  0  0
 27 28  2  0  0  0  0
 28 29  1  0  0  0  0
 28 36  1  0  0  0  0
 29 30  2  0  0  0  0
 30 31  1  0  0  0  0
 30 32  1  0  0  0  0
 32 33  1  0  0  0  0
 32 34  1  0  0  0  0
 32 35  1  0  0  0  0
M  END
> <Acceptable>
false

> <IC50>
1.7

$$$$

Generated by Molecular Materials Informatics

 31 34  0  0  0  0  0  0  0  0999 V2000
   -2.4000    1.3856    0.0000 C   0  0  0  0  0  0  0  0  0  0  0  0
   -1.6000    0.0000    0.0000 C   0  0  0  0  0  0  0  0  0  0  0  0
   -2.4000   -1.3856    0.0000 C   0  0  0  0  0  0  0  0  0  0  0  0
   -4.0000    1.3856    0.0000 C   0  0  0  0  0  0  0  0  0  0  0  0
   -4.8000    0.0000    0.0000 C   0  0  0  0  0  0  0  0  0  0  0  0
   -4.0000   -1.3856    0.0000 C   0  0  0  0  0  0  0  0  0  0  0  0
   -4.8000   -2.7713    0.0000 C   0  0  0  0  0  0  0  0  0  0  0  0
   -6.4000   -2.7713    0.0000 C   0  0  0  0  0  0  0  0  0  0  0  0
   -7.2000   -1.3856    0.0000 C   0  0  0  0  0  0  0  0  0  0  0  0
   -6.4000    0.0000    0.0000 C   0  0  0  0  0  0  0  0  0  0  0  0
   -8.8000   -1.3856    0.0000 C   0  0  0  0  0  0  0  0  0  0  0  0
   -9.6000   -2.7713    0.0000 N   0  0  0  0  0  0  0  0  0  0  0  0
   -8.8000   -4.1569    0.0000 C   0  0  0  0  0  0  0  0  0  0  0  0
  -11.2000   -2.7713    0.0000 C   0  0  0  0  0  0  0  0  0  0  0  0
  -12.0000   -4.1569    0.0000 C   0  0  0  0  0  0  0  0  0  0  0  0
   -9.6000   -5.5426    0.0000 C   0  0  0  0  0  0  0  0  0  0  0  0
    0.0000    0.0000    0.0000 N   0  0  0  0  0  0  0  0  0  0  0  0
    0.8000    1.3856    0.0000 C   0  0  0  0  0  0  0  0  0  0  0  0
    2.4000    1.3856    0.0000 C   0  0  0  0  0  0  0  0  0  0  0  0
    3.2000    0.0000    0.0000 N   0  0  0  0  0  0  0  0  0  0  0  0
    2.4000   -1.3856    0.0000 C   0  0  0  0  0  0  0  0  0  0  0  0
    0.8000   -1.3856    0.0000 C   0  0  0  0  0  0  0  0  0  0  0  0
    0.0000    2.7713    0.0000 O   0  0  0  0  0  0  0  0  0  0  0  0
    4.8000    0.0000    0.0000 C   0  0  0  0  0  0  0  0  0  0  0  0
    5.6000   -1.3856    0.0000 C   0  0  0  0  0  0  0  0  0  0  0  0
    7.2000   -1.3856    0.0000 C   0  0  0  0  0  0  0  0  0  0  0  0
    8.0000    0.0000    0.0000 C   0  0  0  0  0  0  0  0  0  0  0  0
    9.6000    0.0000    0.0000 C   0  0  0  0  0  0  0  0  0  0  0  0
   10.4000   -1.3856    0.0000 C   0  0  0  0  0  0  0  0  0  0  0  0
    9.6000   -2.7713    0.0000 C   0  0  0  0  0  0  0  0  0  0  0  0
    8.0000   -2.7713    0.0000 C   0  0  0  0  0  0  0  0  0  0  0  0
  1  2  1  0  0  0  0
  1  4  1  0  0  0  0
  2  3  1  0  0  0  0
  2 17  1  6  0  0  0
  3  6  1  0  0  0  0
  4  5  1  0  0  0  0
  5  6  1  0  0  0  0
  5 10  2  0  0  0  0
  6  7  2  0  0  0  0
  7  8  1  0  0  0  0
  8  9  2  0  0  0  0
  9 10  1  0  0  0  0
  9 11  1  0  0  0  0
 11 12  1  0  0  0  0
 12 13  1  0  0  0  0
 12 14  1  0  0  0  0
 13 16  1  0  0  0  0
 14 15  1  0  0  0  0
 17 18  1  0  0  0  0
 17 22  1  0  0  0  0
 18 19  1  0  0  0  0
 18 23  2  0  0  0  0
 19 20  1  0  0  0  0
 20 21  1  0  0  0  0
 20 24  1  6  0  0  0
 21 22  1  0  0  0  0
 24 25  1  0  0  0  0
 25 26  1  0  0  0  0
 26 27  1  0  0  0  0
 26 31  1  0  0  0  0
 27 28  1  0  0  0  0
 28 29  1  0  0  0  0
 29 30  1  0  0  0  0
 30 31  1  0  0  0  0
M  END
> <Acceptable>
false

> <IC50>
3.3

$$$$

Generated by Molecular Materials Informatics

 29 32  0  0  0  0  0  0  0  0999 V2000
   -2.4000    1.3856    0.0000 C   0  0  0  0  0  0  0  0  0  0  0  0
   -1.6000    0.0000    0.0000 C   0  0  0  0  0  0  0  0  0  0  0  0
   -2.4000   -1.3856    0.0000 C   0  0  0  0  0  0  0  0  0  0  0  0
   -4.0000    1.3856    0.0000 C   0  0  0  0  0  0  0  0  0  0  0  0
   -4.8000    0.0000    0.0000 C   0  0  0  0  0  0  0  0  0  0  0  0
   -4.0000   -1.3856    0.0000 C   0  0  0  0  0  0  0  0  0  0  0  0
   -4.8000   -2.7713    0.0000 C   0  0  0  0  0  0  0  0  0  0  0  0
   -6.4000   -2.7713    0.0000 C   0  0  0  0  0  0  0  0  0  0  0  0
   -7.2000   -1.3856    0.0000 C   0  0  0  0  0  0  0  0  0  0  0  0
   -6.4000    0.0000    0.0000 C   0  0  0  0  0  0  0  0  0  0  0  0
   -8.8000   -1.3856    0.0000 C   0  0  0  0  0  0  0  0  0  0  0  0
   -9.6000   -2.7713    0.0000 N   0  0  0  0  0  0  0  0  0  0  0  0
   -8.8000   -4.1569    0.0000 C   0  0  0  0  0  0  0  0  0  0  0  0
  -11.2000   -2.7713    0.0000 C   0  0  0  0  0  0  0  0  0  0  0  0
  -12.0000   -4.1569    0.0000 C   0  0  0  0  0  0  0  0  0  0  0  0
   -9.6000   -5.5426    0.0000 C   0  0  0  0  0  0  0  0  0  0  0  0
    0.0000    0.0000    0.0000 N   0  0  0  0  0  0  0  0  0  0  0  0
    0.8000    1.3856    0.0000 C   0  0  0  0  0  0  0  0  0  0  0  0
    2.4000    1.3856    0.0000 C   0  0  0  0  0  0  0  0  0  0  0  0
    3.2000    0.0000    0.0000 N   0  0  0  0  0  0  0  0  0  0  0  0
    2.4000   -1.3856    0.0000 C   0  0  0  0  0  0  0  0  0  0  0  0
    0.8000   -1.3856    0.0000 C   0  0  0  0  0  0  0  0  0  0  0  0
    0.0000    2.7713    0.0000 O   0  0  0  0  0  0  0  0  0  0  0  0
    4.8000    0.0000    0.0000 C   0  0  0  0  0  0  0  0  0  0  0  0
    5.6000   -1.3856    0.0000 C   0  0  0  0  0  0  0  0  0  0  0  0
    7.1912   -1.5529    0.0000 C   0  0  0  0  0  0  0  0  0  0  0  0
    7.5239   -3.1179    0.0000 C   0  0  0  0  0  0  0  0  0  0  0  0
    4.9492   -2.8473    0.0000 C   0  0  0  0  0  0  0  0  0  0  0  0
    6.1383   -3.9179    0.0000 S   0  0  0  0  0  0  0  0  0  0  0  0
  1  2  1  0  0  0  0
  1  4  1  0  0  0  0
  2  3  1  0  0  0  0
  2 17  1  6  0  0  0
  3  6  1  0  0  0  0
  4  5  1  0  0  0  0
  5  6  1  0  0  0  0
  5 10  2  0  0  0  0
  6  7  2  0  0  0  0
  7  8  1  0  0  0  0
  8  9  2  0  0  0  0
  9 10  1  0  0  0  0
  9 11  1  0  0  0  0
 11 12  1  0  0  0  0
 12 13  1  0  0  0  0
 12 14  1  0  0  0  0
 13 16  1  0  0  0  0
 14 15  1  0  0  0  0
 17 18  1  0  0  0  0
 17 22  1  0  0  0  0
 18 19  1  0  0  0  0
 18 23  2  0  0  0  0
 19 20  1  0  0  0  0
 20 21  1  0  0  0  0
 20 24  1  6  0  0  0
 21 22  1  0  0  0  0
 24 25  1  0  0  0  0
 25 26  1  0  0  0  0
 25 28  2  0  0  0  0
 26 27  2  0  0  0  0
 27 29  1  0  0  0  0
 28 29  1  0  0  0  0
M  END
> <Acceptable>
false

> <IC50>
1.2

$$$$

Generated by Molecular Materials Informatics

 37 41  0  0  0  0  0  0  0  0999 V2000
   -8.3138   -4.8000    0.0000 C   0  0  0  0  0  0  0  0  0  0  0  0
   -8.3138   -6.4000    0.0000 C   0  0  0  0  0  0  0  0  0  0  0  0
   -6.9282   -7.2000    0.0000 C   0  0  0  0  0  0  0  0  0  0  0  0
   -5.5426   -6.4000    0.0000 C   0  0  0  0  0  0  0  0  0  0  0  0
   -5.5426   -4.8000    0.0000 C   0  0  0  0  0  0  0  0  0  0  0  0
   -6.9282   -4.0000    0.0000 C   0  0  0  0  0  0  0  0  0  0  0  0
   -9.6995   -7.2000    0.0000 F   0  0  0  0  0  0  0  0  0  0  0  0
   -4.1569   -4.0000    0.0000 C   0  0  0  0  0  0  0  0  0  0  0  0
   -4.1569   -2.4000    0.0000 C   0  0  0  0  0  0  0  0  0  0  0  0
   -2.7713   -1.6000    0.0000 N   0  0  0  0  0  0  0  0  0  0  0  0
   -1.3856   -2.4000    0.0000 C   0  0  0  0  0  0  0  0  0  0  0  0
    0.0000   -1.6000    0.0000 C   0  0  0  0  0  0  0  0  0  0  0  0
    0.0000    0.0000    0.0000 N   0  0  0  0  0  0  0  0  0  0  0  0
   -1.3856    0.8000    0.0000 C   0  0  0  0  0  0  0  0  0  0  0  0
   -2.7713    0.0000    0.0000 C   0  0  0  0  0  0  0  0  0  0  0  0
    1.3856    0.8000    0.0000 C   0  0  0  0  0  0  0  0  0  0  0  0
    2.7713    0.0000    0.0000 C   0  0  0  0  0  0  0  0  0  0  0  0
    2.7713    3.2000    0.0000 C   0  0  0  0  0  0  0  0  0  0  0  0
    1.3856    2.4000    0.0000 C   0  0  0  0  0  0  0  0  0  0  0  0
    4.1569    2.4000    0.0000 C   0  0  0  0  0  0  0  0  0  0  0  0
    4.1569    0.8000    0.0000 C   0  0  0  0  0  0  0  0  0  0  0  0
    5.5426    0.0000    0.0000 C   0  0  0  0  0  0  0  0  0  0  0  0
    6.9282    0.8000    0.0000 C   0  0  0  0  0  0  0  0  0  0  0  0
    6.9282    2.4000    0.0000 C   0  0  0  0  0  0  0  0  0  0  0  0
    5.5426    3.2000    0.0000 C   0  0  0  0  0  0  0  0  0  0  0  0
    8.3138    3.2000    0.0000 C   0  0  0  0  0  0  0  0  0  0  0  0
    9.6995    2.4000    0.0000 N   0  0  0  0  0  0  0  0  0  0  0  0
   -1.3856    2.4000    0.0000 O   0  0  0  0  0  0  0  0  0  0  0  0
    9.6995    0.8000    0.0000 C   0  0  0  0  0  0  0  0  0  0  0  0
   11.0851    0.0000    0.0000 C   0  0  0  0  0  0  0  0  0  0  0  0
   12.4708    0.8000    0.0000 C   0  0  0  0  0  0  0  0  0  0  0  0
   12.4708    2.4000    0.0000 C   0  0  0  0  0  0  0  0  0  0  0  0
   11.0851    3.2000    0.0000 C   0  0  0  0  0  0  0  0  0  0  0  0
   13.8564    0.0000    0.0000 C   0  0  0  0  0  0  0  0  0  0  0  0
   13.8564   -1.6000    0.0000 F   0  0  0  0  0  0  0  0  0  0  0  0
   15.2420    0.8000    0.0000 F   0  0  0  0  0  0  0  0  0  0  0  0
   15.2420   -0.8000    0.0000 F   0  0  0  0  0  0  0  0  0  0  0  0
  1  2  1  0  0  0  0
  1  6  2  0  0  0  0
  2  3  2  0  0  0  0
  2  7  1  0  0  0  0
  3  4  1  0  0  0  0
  4  5  2  0  0  0  0
  5  6  1  0  0  0  0
  5  8  1  0  0  0  0
  8  9  1  0  0  0  0
 10  9  1  1  0  0  0
 10 11  1  0  0  0  0
 10 15  1  0  0  0  0
 11 12  1  0  0  0  0
 12 13  1  0  0  0  0
 13 14  1  0  0  0  0
 16 13  1  1  0  0  0
 14 15  1  0  0  0  0
 14 28  2  0  0  0  0
 16 17  1  0  0  0  0
 16 19  1  0  0  0  0
 17 21  1  0  0  0  0
 18 19  1  0  0  0  0
 18 20  1  0  0  0  0
 20 21  1  0  0  0  0
 20 25  2  0  0  0  0
 21 22  2  0  0  0  0
 22 23  1  0  0  0  0
 23 24  2  0  0  0  0
 24 25  1  0  0  0  0
 24 26  1  0  0  0  0
 27 26  1  1  0  0  0
 27 29  1  0  0  0  0
 27 33  1  0  0  0  0
 29 30  1  0  0  0  0
 30 31  1  0  0  0  0
 31 32  1  0  0  0  0
 31 34  1  6  0  0  0
 32 33  1  0  0  0  0
 34 35  1  0  0  0  0
 34 36  1  0  0  0  0
 34 37  1  0  0  0  0
M  END
> <Acceptable>
false

> <IC50>
2

$$$$

Generated by Molecular Materials Informatics

 32 36  0  0  0  0  0  0  0  0999 V2000
   -9.6000    0.0000    0.0000 C   0  0  0  0  0  0  0  0  0  0  0  0
  -10.4000   -1.3856    0.0000 C   0  0  0  0  0  0  0  0  0  0  0  0
   -9.6000   -2.7713    0.0000 C   0  0  0  0  0  0  0  0  0  0  0  0
   -8.0000   -2.7713    0.0000 C   0  0  0  0  0  0  0  0  0  0  0  0
   -7.2000   -1.3856    0.0000 C   0  0  0  0  0  0  0  0  0  0  0  0
   -8.0000    0.0000    0.0000 C   0  0  0  0  0  0  0  0  0  0  0  0
  -12.0000   -1.3856    0.0000 F   0  0  0  0  0  0  0  0  0  0  0  0
   -5.6000   -1.3856    0.0000 C   0  0  0  0  0  0  0  0  0  0  0  0
   -4.8000    0.0000    0.0000 C   0  0  0  0  0  0  0  0  0  0  0  0
   -3.2000    0.0000    0.0000 N   0  0  0  0  0  0  0  0  0  0  0  0
   -2.4000   -1.3856    0.0000 C   0  0  0  0  0  0  0  0  0  0  0  0
   -0.8000   -1.3856    0.0000 C   0  0  0  0  0  0  0  0  0  0  0  0
    0.0000    0.0000    0.0000 N   0  0  0  0  0  0  0  0  0  0  0  0
   -0.8000    1.3856    0.0000 C   0  0  0  0  0  0  0  0  0  0  0  0
   -2.4000    1.3856    0.0000 C   0  0  0  0  0  0  0  0  0  0  0  0
    1.6000    0.0000    0.0000 C   0  0  0  0  0  0  0  0  0  0  0  0
    2.4000   -1.3856    0.0000 C   0  0  0  0  0  0  0  0  0  0  0  0
    4.0000    1.3856    0.0000 C   0  0  0  0  0  0  0  0  0  0  0  0
    2.4000    1.3856    0.0000 C   0  0  0  0  0  0  0  0  0  0  0  0
    4.8000    0.0000    0.0000 C   0  0  0  0  0  0  0  0  0  0  0  0
    4.0000   -1.3856    0.0000 C   0  0  0  0  0  0  0  0  0  0  0  0
    4.8000   -2.7713    0.0000 C   0  0  0  0  0  0  0  0  0  0  0  0
    6.4000   -2.7713    0.0000 C   0  0  0  0  0  0  0  0  0  0  0  0
    7.2000   -1.3856    0.0000 C   0  0  0  0  0  0  0  0  0  0  0  0
    6.4000    0.0000    0.0000 C   0  0  0  0  0  0  0  0  0  0  0  0
    8.8000   -1.3856    0.0000 C   0  0  0  0  0  0  0  0  0  0  0  0
    0.0000    2.7713    0.0000 O   0  0  0  0  0  0  0  0  0  0  0  0
    9.6000   -2.7713    0.0000 N   0  0  0  0  0  0  0  0  0  0  0  0
    8.9492   -4.2330    0.0000 C   0  0  0  0  0  0  0  0  0  0  0  0
   10.1383   -5.3036    0.0000 C   0  0  0  0  0  0  0  0  0  0  0  0
   11.5239   -4.5036    0.0000 N   0  0  0  0  0  0  0  0  0  0  0  0
   11.1912   -2.9385    0.0000 C   0  0  0  0  0  0  0  0  0  0  0  0
  1  2  1  0  0  0  0
  1  6  2  0  0  0  0
  2  3  2  0  0  0  0
  2  7  1  0  0  0  0
  3  4  1  0  0  0  0
  4  5  2  0  0  0  0
  5  6  1  0  0  0  0
  5  8  1  0  0  0  0
  8  9  1  0  0  0  0
 10  9  1  1  0  0  0
 10 11  1  0  0  0  0
 10 15  1  0  0  0  0
 11 12  1  0  0  0  0
 12 13  1  0  0  0  0
 13 14  1  0  0  0  0
 16 13  1  1  0  0  0
 14 15  1  0  0  0  0
 14 27  2  0  0  0  0
 16 17  1  0  0  0  0
 16 19  1  0  0  0  0
 17 21  1  0  0  0  0
 18 19  1  0  0  0  0
 18 20  1  0  0  0  0
 20 21  1  0  0  0  0
 20 25  2  0  0  0  0
 21 22  2  0  0  0  0
 22 23  1  0  0  0  0
 23 24  2  0  0  0  0
 24 25  1  0  0  0  0
 24 26  1  0  0  0  0
 26 28  1  0  0  0  0
 28 29  1  0  0  0  0
 28 32  1  0  0  0  0
 29 30  2  0  0  0  0
 30 31  1  0  0  0  0
 31 32  2  0  0  0  0
M  END
> <Acceptable>
false

> <IC50>
4

$$$$

Generated by Molecular Materials Informatics

 33 37  0  0  0  0  0  0  0  0999 V2000
   -9.6000    0.0000    0.0000 C   0  0  0  0  0  0  0  0  0  0  0  0
  -10.4000   -1.3856    0.0000 C   0  0  0  0  0  0  0  0  0  0  0  0
   -9.6000   -2.7713    0.0000 C   0  0  0  0  0  0  0  0  0  0  0  0
   -8.0000   -2.7713    0.0000 C   0  0  0  0  0  0  0  0  0  0  0  0
   -7.2000   -1.3856    0.0000 C   0  0  0  0  0  0  0  0  0  0  0  0
   -8.0000    0.0000    0.0000 C   0  0  0  0  0  0  0  0  0  0  0  0
  -12.0000   -1.3856    0.0000 F   0  0  0  0  0  0  0  0  0  0  0  0
   -5.6000   -1.3856    0.0000 C   0  0  0  0  0  0  0  0  0  0  0  0
   -4.8000    0.0000    0.0000 C   0  0  0  0  0  0  0  0  0  0  0  0
   -3.2000    0.0000    0.0000 N   0  0  0  0  0  0  0  0  0  0  0  0
   -2.4000   -1.3856    0.0000 C   0  0  0  0  0  0  0  0  0  0  0  0
   -0.8000   -1.3856    0.0000 C   0  0  0  0  0  0  0  0  0  0  0  0
    0.0000    0.0000    0.0000 N   0  0  0  0  0  0  0  0  0  0  0  0
   -0.8000    1.3856    0.0000 C   0  0  0  0  0  0  0  0  0  0  0  0
   -2.4000    1.3856    0.0000 C   0  0  0  0  0  0  0  0  0  0  0  0
    1.6000    0.0000    0.0000 C   0  0  0  0  0  0  0  0  0  0  0  0
    2.4000   -1.3856    0.0000 C   0  0  0  0  0  0  0  0  0  0  0  0
    4.0000    1.3856    0.0000 C   0  0  0  0  0  0  0  0  0  0  0  0
    2.4000    1.3856    0.0000 C   0  0  0  0  0  0  0  0  0  0  0  0
    4.8000    0.0000    0.0000 C   0  0  0  0  0  0  0  0  0  0  0  0
    4.0000   -1.3856    0.0000 C   0  0  0  0  0  0  0  0  0  0  0  0
    4.8000   -2.7713    0.0000 C   0  0  0  0  0  0  0  0  0  0  0  0
    6.4000   -2.7713    0.0000 C   0  0  0  0  0  0  0  0  0  0  0  0
    7.2000   -1.3856    0.0000 C   0  0  0  0  0  0  0  0  0  0  0  0
    6.4000    0.0000    0.0000 C   0  0  0  0  0  0  0  0  0  0  0  0
    8.8000   -1.3856    0.0000 C   0  0  0  0  0  0  0  0  0  0  0  0
    0.0000    2.7713    0.0000 O   0  0  0  0  0  0  0  0  0  0  0  0
    9.6000   -2.7713    0.0000 N   0  0  0  0  0  0  0  0  0  0  0  0
    8.8000   -4.1569    0.0000 C   0  0  0  0  0  0  0  0  0  0  0  0
    9.6000   -5.5426    0.0000 C   0  0  0  0  0  0  0  0  0  0  0  0
   11.2000   -5.5426    0.0000 C   0  0  0  0  0  0  0  0  0  0  0  0
   12.0000   -4.1569    0.0000 C   0  0  0  0  0  0  0  0  0  0  0  0
   11.2000   -2.7713    0.0000 C   0  0  0  0  0  0  0  0  0  0  0  0
  1  2  1  0  0  0  0
  1  6  2  0  0  0  0
  2  3  2  0  0  0  0
  2  7  1  0  0  0  0
  3  4  1  0  0  0  0
  4  5  2  0  0  0  0
  5  6  1  0  0  0  0
  5  8  1  0  0  0  0
  8  9  1  0  0  0  0
 10  9  1  1  0  0  0
 10 11  1  0  0  0  0
 10 15  1  0  0  0  0
 11 12  1  0  0  0  0
 12 13  1  0  0  0  0
 13 14  1  0  0  0  0
 16 13  1  1  0  0  0
 14 15  1  0  0  0  0
 14 27  2  0  0  0  0
 16 17  1  0  0  0  0
 16 19  1  0  0  0  0
 17 21  1  0  0  0  0
 18 19  1  0  0  0  0
 18 20  1  0  0  0  0
 20 21  1  0  0  0  0
 20 25  2  0  0  0  0
 21 22  2  0  0  0  0
 22 23  1  0  0  0  0
 23 24  2  0  0  0  0
 24 25  1  0  0  0  0
 24 26  1  0  0  0  0
 26 28  1  0  0  0  0
 28 29  1  0  0  0  0
 28 33  1  0  0  0  0
 29 30  1  0  0  0  0
 30 31  1  0  0  0  0
 31 32  1  0  0  0  0
 32 33  1  0  0  0  0
M  END
> <Acceptable>
false

> <IC50>
11

$$$$

Generated by Molecular Materials Informatics

 37 41  0  0  0  0  0  0  0  0999 V2000
   -8.3138   -4.8000    0.0000 C   0  0  0  0  0  0  0  0  0  0  0  0
   -8.3138   -6.4000    0.0000 C   0  0  0  0  0  0  0  0  0  0  0  0
   -6.9282   -7.2000    0.0000 C   0  0  0  0  0  0  0  0  0  0  0  0
   -5.5426   -6.4000    0.0000 C   0  0  0  0  0  0  0  0  0  0  0  0
   -5.5426   -4.8000    0.0000 C   0  0  0  0  0  0  0  0  0  0  0  0
   -6.9282   -4.0000    0.0000 C   0  0  0  0  0  0  0  0  0  0  0  0
   -9.6995   -7.2000    0.0000 F   0  0  0  0  0  0  0  0  0  0  0  0
   -4.1569   -4.0000    0.0000 C   0  0  0  0  0  0  0  0  0  0  0  0
   -4.1569   -2.4000    0.0000 C   0  0  0  0  0  0  0  0  0  0  0  0
   -2.7713   -1.6000    0.0000 N   0  0  0  0  0  0  0  0  0  0  0  0
   -1.3856   -2.4000    0.0000 C   0  0  0  0  0  0  0  0  0  0  0  0
    0.0000   -1.6000    0.0000 C   0  0  0  0  0  0  0  0  0  0  0  0
    0.0000    0.0000    0.0000 N   0  0  0  0  0  0  0  0  0  0  0  0
   -1.3856    0.8000    0.0000 C   0  0  0  0  0  0  0  0  0  0  0  0
   -2.7713    0.0000    0.0000 C   0  0  0  0  0  0  0  0  0  0  0  0
    1.3856    0.8000    0.0000 C   0  0  0  0  0  0  0  0  0  0  0  0
    2.7713    0.0000    0.0000 C   0  0  0  0  0  0  0  0  0  0  0  0
    2.7713    3.2000    0.0000 C   0  0  0  0  0  0  0  0  0  0  0  0
    1.3856    2.4000    0.0000 C   0  0  0  0  0  0  0  0  0  0  0  0
    4.1569    2.4000    0.0000 C   0  0  0  0  0  0  0  0  0  0  0  0
    4.1569    0.8000    0.0000 C   0  0  0  0  0  0  0  0  0  0  0  0
    5.5426    0.0000    0.0000 C   0  0  0  0  0  0  0  0  0  0  0  0
    6.9282    0.8000    0.0000 C   0  0  0  0  0  0  0  0  0  0  0  0
    6.9282    2.4000    0.0000 C   0  0  0  0  0  0  0  0  0  0  0  0
    5.5426    3.2000    0.0000 C   0  0  0  0  0  0  0  0  0  0  0  0
    8.3138    3.2000    0.0000 C   0  0  0  0  0  0  0  0  0  0  0  0
   -1.3856    2.4000    0.0000 O   0  0  0  0  0  0  0  0  0  0  0  0
    9.6995    2.4000    0.0000 N   0  0  0  0  0  0  0  0  0  0  0  0
    9.6995    0.8000    0.0000 C   0  0  0  0  0  0  0  0  0  0  0  0
   11.0851    0.0000    0.0000 C   0  0  0  0  0  0  0  0  0  0  0  0
   12.4708    0.8000    0.0000 N   0  0  0  0  0  0  0  0  0  0  0  0
   12.4708    2.4000    0.0000 C   0  0  0  0  0  0  0  0  0  0  0  0
   11.0851    3.2000    0.0000 C   0  0  0  0  0  0  0  0  0  0  0  0
   13.8564    0.0000    0.0000 S   0  0  0  0  0  0  0  0  0  0  0  0
   13.0564   -1.3856    0.0000 C   0  0  0  0  0  0  0  0  0  0  0  0
   14.6564    1.3856    0.0000 O   0  0  0  0  0  0  0  0  0  0  0  0
   15.2420   -0.8000    0.0000 O   0  0  0  0  0  0  0  0  0  0  0  0
  1  2  1  0  0  0  0
  1  6  2  0  0  0  0
  2  3  2  0  0  0  0
  2  7  1  0  0  0  0
  3  4  1  0  0  0  0
  4  5  2  0  0  0  0
  5  6  1  0  0  0  0
  5  8  1  0  0  0  0
  8  9  1  0  0  0  0
 10  9  1  1  0  0  0
 10 11  1  0  0  0  0
 10 15  1  0  0  0  0
 11 12  1  0  0  0  0
 12 13  1  0  0  0  0
 13 14  1  0  0  0  0
 16 13  1  1  0  0  0
 14 15  1  0  0  0  0
 14 27  2  0  0  0  0
 16 17  1  0  0  0  0
 16 19  1  0  0  0  0
 17 21  1  0  0  0  0
 18 19  1  0  0  0  0
 18 20  1  0  0  0  0
 20 21  1  0  0  0  0
 20 25  2  0  0  0  0
 21 22  2  0  0  0  0
 22 23  1  0  0  0  0
 23 24  2  0  0  0  0
 24 25  1  0  0  0  0
 24 26  1  0  0  0  0
 28 26  1  1  0  0  0
 28 29  1  0  0  0  0
 28 33  1  0  0  0  0
 29 30  1  0  0  0  0
 30 31  1  0  0  0  0
 31 32  1  0  0  0  0
 31 34  1  1  0  0  0
 32 33  1  0  0  0  0
 34 35  1  0  0  0  0
 34 36  2  0  0  0  0
 34 37  2  0  0  0  0
M  END
> <Acceptable>
false

> <IC50>
13

$$$$

Generated by Molecular Materials Informatics

 35 39  0  0  0  0  0  0  0  0999 V2000
   -9.6000    0.0000    0.0000 C   0  0  0  0  0  0  0  0  0  0  0  0
  -10.4000   -1.3856    0.0000 C   0  0  0  0  0  0  0  0  0  0  0  0
   -9.6000   -2.7713    0.0000 C   0  0  0  0  0  0  0  0  0  0  0  0
   -8.0000   -2.7713    0.0000 C   0  0  0  0  0  0  0  0  0  0  0  0
   -7.2000   -1.3856    0.0000 C   0  0  0  0  0  0  0  0  0  0  0  0
   -8.0000    0.0000    0.0000 C   0  0  0  0  0  0  0  0  0  0  0  0
  -12.0000   -1.3856    0.0000 F   0  0  0  0  0  0  0  0  0  0  0  0
   -5.6000   -1.3856    0.0000 C   0  0  0  0  0  0  0  0  0  0  0  0
   -4.8000    0.0000    0.0000 C   0  0  0  0  0  0  0  0  0  0  0  0
   -3.2000    0.0000    0.0000 N   0  0  0  0  0  0  0  0  0  0  0  0
   -2.4000   -1.3856    0.0000 C   0  0  0  0  0  0  0  0  0  0  0  0
   -0.8000   -1.3856    0.0000 C   0  0  0  0  0  0  0  0  0  0  0  0
    0.0000    0.0000    0.0000 N   0  0  0  0  0  0  0  0  0  0  0  0
   -0.8000    1.3856    0.0000 C   0  0  0  0  0  0  0  0  0  0  0  0
   -2.4000    1.3856    0.0000 C   0  0  0  0  0  0  0  0  0  0  0  0
    1.6000    0.0000    0.0000 C   0  0  0  0  0  0  0  0  0  0  0  0
    2.4000   -1.3856    0.0000 C   0  0  0  0  0  0  0  0  0  0  0  0
    4.0000    1.3856    0.0000 C   0  0  0  0  0  0  0  0  0  0  0  0
    2.4000    1.3856    0.0000 C   0  0  0  0  0  0  0  0  0  0  0  0
    4.8000    0.0000    0.0000 C   0  0  0  0  0  0  0  0  0  0  0  0
    4.0000   -1.3856    0.0000 C   0  0  0  0  0  0  0  0  0  0  0  0
    4.8000   -2.7713    0.0000 C   0  0  0  0  0  0  0  0  0  0  0  0
    6.4000   -2.7713    0.0000 C   0  0  0  0  0  0  0  0  0  0  0  0
    7.2000   -1.3856    0.0000 C   0  0  0  0  0  0  0  0  0  0  0  0
    6.4000    0.0000    0.0000 C   0  0  0  0  0  0  0  0  0  0  0  0
    8.8000   -1.3856    0.0000 C   0  0  0  0  0  0  0  0  0  0  0  0
    0.0000    2.7713    0.0000 O   0  0  0  0  0  0  0  0  0  0  0  0
    9.6000   -2.7713    0.0000 N   0  0  0  0  0  0  0  0  0  0  0  0
    8.8000   -4.1569    0.0000 C   0  0  0  0  0  0  0  0  0  0  0  0
    9.6000   -5.5426    0.0000 C   0  0  0  0  0  0  0  0  0  0  0  0
   11.2000   -5.5426    0.0000 S   0  0  0  0  0  0  0  0  0  0  0  0
   12.0000   -4.1569    0.0000 C   0  0  0  0  0  0  0  0  0  0  0  0
   11.2000   -2.7713    0.0000 C   0  0  0  0  0  0  0  0  0  0  0  0
   10.9222   -7.1183    0.0000 O   0  0  0  0  0  0  0  0  0  0  0  0
   12.7035   -6.0898    0.0000 O   0  0  0  0  0  0  0  0  0  0  0  0
  1  2  1  0  0  0  0
  1  6  2  0  0  0  0
  2  3  2  0  0  0  0
  2  7  1  0  0  0  0
  3  4  1  0  0  0  0
  4  5  2  0  0  0  0
  5  6  1  0  0  0  0
  5  8  1  0  0  0  0
  8  9  1  0  0  0  0
 10  9  1  1  0  0  0
 10 11  1  0  0  0  0
 10 15  1  0  0  0  0
 11 12  1  0  0  0  0
 12 13  1  0  0  0  0
 13 14  1  0  0  0  0
 16 13  1  1  0  0  0
 14 15  1  0  0  0  0
 14 27  2  0  0  0  0
 16 17  1  0  0  0  0
 16 19  1  0  0  0  0
 17 21  1  0  0  0  0
 18 19  1  0  0  0  0
 18 20  1  0  0  0  0
 20 21  1  0  0  0  0
 20 25  2  0  0  0  0
 21 22  2  0  0  0  0
 22 23  1  0  0  0  0
 23 24  2  0  0  0  0
 24 25  1  0  0  0  0
 24 26  1  0  0  0  0
 26 28  1  0  0  0  0
 28 29  1  0  0  0  0
 28 33  1  0  0  0  0
 29 30  1  0  0  0  0
 30 31  1  0  0  0  0
 31 32  1  0  0  0  0
 31 34  2  0  0  0  0
 31 35  2  0  0  0  0
 32 33  1  0  0  0  0
M  END
> <Acceptable>
false

> <IC50>
24

$$$$

Generated by Molecular Materials Informatics

 36 40  0  0  0  0  0  0  0  0999 V2000
   -8.3138   -4.8000    0.0000 C   0  0  0  0  0  0  0  0  0  0  0  0
   -8.3138   -6.4000    0.0000 C   0  0  0  0  0  0  0  0  0  0  0  0
   -6.9282   -7.2000    0.0000 C   0  0  0  0  0  0  0  0  0  0  0  0
   -5.5426   -6.4000    0.0000 C   0  0  0  0  0  0  0  0  0  0  0  0
   -5.5426   -4.8000    0.0000 C   0  0  0  0  0  0  0  0  0  0  0  0
   -6.9282   -4.0000    0.0000 C   0  0  0  0  0  0  0  0  0  0  0  0
   -9.6995   -7.2000    0.0000 F   0  0  0  0  0  0  0  0  0  0  0  0
   -4.1569   -4.0000    0.0000 C   0  0  0  0  0  0  0  0  0  0  0  0
   -4.1569   -2.4000    0.0000 C   0  0  0  0  0  0  0  0  0  0  0  0
   -2.7713   -1.6000    0.0000 N   0  0  0  0  0  0  0  0  0  0  0  0
   -1.3856   -2.4000    0.0000 C   0  0  0  0  0  0  0  0  0  0  0  0
    0.0000   -1.6000    0.0000 C   0  0  0  0  0  0  0  0  0  0  0  0
    0.0000    0.0000    0.0000 N   0  0  0  0  0  0  0  0  0  0  0  0
   -1.3856    0.8000    0.0000 C   0  0  0  0  0  0  0  0  0  0  0  0
   -2.7713    0.0000    0.0000 C   0  0  0  0  0  0  0  0  0  0  0  0
    1.3856    0.8000    0.0000 C   0  0  0  0  0  0  0  0  0  0  0  0
    2.7713    0.0000    0.0000 C   0  0  0  0  0  0  0  0  0  0  0  0
    2.7713    3.2000    0.0000 C   0  0  0  0  0  0  0  0  0  0  0  0
    1.3856    2.4000    0.0000 C   0  0  0  0  0  0  0  0  0  0  0  0
    4.1569    2.4000    0.0000 C   0  0  0  0  0  0  0  0  0  0  0  0
    4.1569    0.8000    0.0000 C   0  0  0  0  0  0  0  0  0  0  0  0
    5.5426    0.0000    0.0000 C   0  0  0  0  0  0  0  0  0  0  0  0
    6.9282    0.8000    0.0000 C   0  0  0  0  0  0  0  0  0  0  0  0
    6.9282    2.4000    0.0000 C   0  0  0  0  0  0  0  0  0  0  0  0
    5.5426    3.2000    0.0000 C   0  0  0  0  0  0  0  0  0  0  0  0
    8.3138    3.2000    0.0000 C   0  0  0  0  0  0  0  0  0  0  0  0
   -1.3856    2.4000    0.0000 O   0  0  0  0  0  0  0  0  0  0  0  0
    9.6995    2.4000    0.0000 N   0  0  0  0  0  0  0  0  0  0  0  0
    9.6995    0.8000    0.0000 C   0  0  0  0  0  0  0  0  0  0  0  0
   11.0851    0.0000    0.0000 C   0  0  0  0  0  0  0  0  0  0  0  0
   12.4708    0.8000    0.0000 N   0  0  0  0  0  0  0  0  0  0  0  0
   12.4708    2.4000    0.0000 C   0  0  0  0  0  0  0  0  0  0  0  0
   11.0851    3.2000    0.0000 C   0  0  0  0  0  0  0  0  0  0  0  0
   13.8564    0.0000    0.0000 C   0  0  0  0  0  0  0  0  0  0  0  0
   13.8564   -1.6000    0.0000 C   0  0  0  0  0  0  0  0  0  0  0  0
   15.2420    0.8000    0.0000 O   0  0  0  0  0  0  0  0  0  0  0  0
  1  2  1  0  0  0  0
  1  6  2  0  0  0  0
  2  3  2  0  0  0  0
  2  7  1  0  0  0  0
  3  4  1  0  0  0  0
  4  5  2  0  0  0  0
  5  6  1  0  0  0  0
  5  8  1  0  0  0  0
  8  9  1  0  0  0  0
 10  9  1  1  0  0  0
 10 11  1  0  0  0  0
 10 15  1  0  0  0  0
 11 12  1  0  0  0  0
 12 13  1  0  0  0  0
 13 14  1  0  0  0  0
 16 13  1  1  0  0  0
 14 15  1  0  0  0  0
 14 27  2  0  0  0  0
 16 17  1  0  0  0  0
 16 19  1  0  0  0  0
 17 21  1  0  0  0  0
 18 19  1  0  0  0  0
 18 20  1  0  0  0  0
 20 21  1  0  0  0  0
 20 25  2  0  0  0  0
 21 22  2  0  0  0  0
 22 23  1  0  0  0  0
 23 24  2  0  0  0  0
 24 25  1  0  0  0  0
 24 26  1  0  0  0  0
 26 28  1  0  0  0  0
 28 29  1  0  0  0  0
 28 33  1  0  0  0  0
 29 30  1  0  0  0  0
 30 31  1  0  0  0  0
 31 32  1  0  0  0  0
 31 34  1  0  0  0  0
 32 33  1  0  0  0  0
 34 35  1  0  0  0  0
 34 36  2  0  0  0  0
M  END
> <Acceptable>
false

> <IC50>
25

$$$$

Generated by Molecular Materials Informatics

 37 40  0  0  0  0  0  0  0  0999 V2000
   -9.6000    0.0000    0.0000 C   0  0  0  0  0  0  0  0  0  0  0  0
  -10.4000   -1.3856    0.0000 C   0  0  0  0  0  0  0  0  0  0  0  0
   -9.6000   -2.7713    0.0000 C   0  0  0  0  0  0  0  0  0  0  0  0
   -8.0000   -2.7713    0.0000 C   0  0  0  0  0  0  0  0  0  0  0  0
   -7.2000   -1.3856    0.0000 C   0  0  0  0  0  0  0  0  0  0  0  0
   -8.0000    0.0000    0.0000 C   0  0  0  0  0  0  0  0  0  0  0  0
  -12.0000   -1.3856    0.0000 F   0  0  0  0  0  0  0  0  0  0  0  0
   -5.6000   -1.3856    0.0000 C   0  0  0  0  0  0  0  0  0  0  0  0
   -4.8000    0.0000    0.0000 C   0  0  0  0  0  0  0  0  0  0  0  0
   -3.2000    0.0000    0.0000 N   0  0  0  0  0  0  0  0  0  0  0  0
   -2.4000   -1.3856    0.0000 C   0  0  0  0  0  0  0  0  0  0  0  0
   -0.8000   -1.3856    0.0000 C   0  0  0  0  0  0  0  0  0  0  0  0
    0.0000    0.0000    0.0000 N   0  0  0  0  0  0  0  0  0  0  0  0
   -0.8000    1.3856    0.0000 C   0  0  0  0  0  0  0  0  0  0  0  0
   -2.4000    1.3856    0.0000 C   0  0  0  0  0  0  0  0  0  0  0  0
    1.6000    0.0000    0.0000 C   0  0  0  0  0  0  0  0  0  0  0  0
    2.4000   -1.3856    0.0000 C   0  0  0  0  0  0  0  0  0  0  0  0
    4.0000    1.3856    0.0000 C   0  0  0  0  0  0  0  0  0  0  0  0
    2.4000    1.3856    0.0000 C   0  0  0  0  0  0  0  0  0  0  0  0
    4.8000    0.0000    0.0000 C   0  0  0  0  0  0  0  0  0  0  0  0
    4.0000   -1.3856    0.0000 C   0  0  0  0  0  0  0  0  0  0  0  0
    4.8000   -2.7713    0.0000 C   0  0  0  0  0  0  0  0  0  0  0  0
    6.4000   -2.7713    0.0000 C   0  0  0  0  0  0  0  0  0  0  0  0
    7.2000   -1.3856    0.0000 C   0  0  0  0  0  0  0  0  0  0  0  0
    6.4000    0.0000    0.0000 C   0  0  0  0  0  0  0  0  0  0  0  0
    8.8000   -1.3856    0.0000 C   0  0  0  0  0  0  0  0  0  0  0  0
    0.0000    2.7713    0.0000 O   0  0  0  0  0  0  0  0  0  0  0  0
    9.6000   -2.7713    0.0000 N   0  0  0  0  0  0  0  0  0  0  0  0
   11.2000   -2.7713    0.0000 C   0  0  0  0  0  0  0  0  0  0  0  0
    8.8000   -4.1569    0.0000 C   0  0  0  0  0  0  0  0  0  0  0  0
   12.0000   -4.1569    0.0000 C   0  0  0  0  0  0  0  0  0  0  0  0
   12.0000   -1.3856    0.0000 C   0  0  0  0  0  0  0  0  0  0  0  0
   11.2000   -5.5426    0.0000 O   0  0  0  0  0  0  0  0  0  0  0  0
   13.6000   -4.1569    0.0000 N   0  0  0  0  0  0  0  0  0  0  0  0
   14.4000   -2.7713    0.0000 C   0  0  0  0  0  0  0  0  0  0  0  0
   14.4000   -5.5426    0.0000 C   0  0  0  0  0  0  0  0  0  0  0  0
   13.6000   -1.3856    0.0000 O   0  0  0  0  0  0  0  0  0  0  0  0
  1  2  1  0  0  0  0
  1  6  2  0  0  0  0
  2  3  2  0  0  0  0
  2  7  1  0  0  0  0
  3  4  1  0  0  0  0
  4  5  2  0  0  0  0
  5  6  1  0  0  0  0
  5  8  1  0  0  0  0
  8  9  1  0  0  0  0
 10  9  1  1  0  0  0
 10 11  1  0  0  0  0
 10 15  1  0  0  0  0
 11 12  1  0  0  0  0
 12 13  1  0  0  0  0
 13 14  1  0  0  0  0
 16 13  1  1  0  0  0
 14 15  1  0  0  0  0
 14 27  2  0  0  0  0
 16 17  1  0  0  0  0
 16 19  1  0  0  0  0
 17 21  1  0  0  0  0
 18 19  1  0  0  0  0
 18 20  1  0  0  0  0
 20 21  1  0  0  0  0
 20 25  2  0  0  0  0
 21 22  2  0  0  0  0
 22 23  1  0  0  0  0
 23 24  2  0  0  0  0
 24 25  1  0  0  0  0
 24 26  1  0  0  0  0
 26 28  1  0  0  0  0
 28 29  1  0  0  0  0
 28 30  1  6  0  0  0
 29 31  1  0  0  0  0
 29 32  1  6  0  0  0
 31 33  2  0  0  0  0
 31 34  1  0  0  0  0
 32 37  1  0  0  0  0
 34 35  1  0  0  0  0
 34 36  1  0  0  0  0
M  END
> <Acceptable>
false

> <IC50>
25

$$$$

Generated by Molecular Materials Informatics

 11 11  0  0  0  0  0  0  0  0999 V2000
   -2.4000    1.3856    0.0000 O   0  0  0  0  0  0  0  0  0  0  0  0
   -1.6000    0.0000    0.0000 C   0  0  0  0  0  0  0  0  0  0  0  0
   -2.4000   -1.3856    0.0000 O   0  0  0  0  0  0  0  0  0  0  0  0
    0.0000    0.0000    0.0000 C   0  0  0  0  0  0  0  0  0  0  0  0
    0.8000   -1.3856    0.0000 C   0  0  0  0  0  0  0  0  0  0  0  0
    2.4000   -1.3856    0.0000 C   0  0  0  0  0  0  0  0  0  0  0  0
    3.2000    0.0000    0.0000 C   0  0  0  0  0  0  0  0  0  0  0  0
    4.8000    0.0000    0.0000 N   0  0  0  0  0  0  0  0  0  0  0  0
    2.4000    1.3856    0.0000 C   0  0  0  0  0  0  0  0  0  0  0  0
    0.8000    1.3856    0.0000 C   0  0  0  0  0  0  0  0  0  0  0  0
    0.0000    2.7713    0.0000 O   0  0  0  0  0  0  0  0  0  0  0  0
  1  2  2  0  0  0  0
  2  3  1  0  0  0  0
  2  4  1  0  0  0  0
  4  5  1  0  0  0  0
  4 10  2  0  0  0  0
  5  6  2  0  0  0  0
  6  7  1  0  0  0  0
  7  8  1  0  0  0  0
  7  9  2  0  0  0  0
  9 10  1  0  0  0  0
 10 11  1  0  0  0  0
M  END
> <Acceptable>
true

> <IC50>
N/A

$$$$

Generated by Molecular Materials Informatics

 31 33  0  0  0  0  0  0  0  0999 V2000
   -3.8998    1.6468    0.0000 C   0  0  0  0  0  0  0  0  0  0  0  0
   -2.7107    0.5762    0.0000 C   0  0  0  0  0  0  0  0  0  0  0  0
   -3.0434   -0.9889    0.0000 C   0  0  0  0  0  0  0  0  0  0  0  0
   -4.5651   -1.4833    0.0000 C   0  0  0  0  0  0  0  0  0  0  0  0
   -5.7541   -0.4127    0.0000 C   0  0  0  0  0  0  0  0  0  0  0  0
   -5.4214    1.1524    0.0000 C   0  0  0  0  0  0  0  0  0  0  0  0
   -1.1890    1.0706    0.0000 C   0  0  0  0  0  0  0  0  0  0  0  0
    0.0000    0.0000    0.0000 C   0  0  0  0  0  0  0  0  0  0  0  0
   -0.8564    2.6356    0.0000 O   0  0  0  0  0  0  0  0  0  0  0  0
   -7.2758   -0.9071    0.0000 O   0  0  0  0  0  0  0  0  0  0  0  0
   -8.4648    0.1635    0.0000 C   0  0  0  0  0  0  0  0  0  0  0  0
   -9.9865   -0.3309    0.0000 C   0  0  0  0  0  0  0  0  0  0  0  0
  -11.1755    0.7397    0.0000 N   0  0  0  0  0  0  0  0  0  0  0  0
  -10.8429    2.3047    0.0000 C   0  0  0  0  0  0  0  0  0  0  0  0
  -12.6972    0.2453    0.0000 C   0  0  0  0  0  0  0  0  0  0  0  0
  -12.0319    3.3753    0.0000 C   0  0  0  0  0  0  0  0  0  0  0  0
  -13.8863    1.3159    0.0000 C   0  0  0  0  0  0  0  0  0  0  0  0
   -4.8977   -3.0483    0.0000 I   0  0  0  0  0  0  0  0  0  0  0  0
   -6.6105    2.2230    0.0000 I   0  0  0  0  0  0  0  0  0  0  0  0
    3.9650    1.7183    0.0000 C   0  0  0  0  0  0  0  0  0  0  0  0
    4.7650    0.3327    0.0000 C   0  0  0  0  0  0  0  0  0  0  0  0
    3.9650   -1.0530    0.0000 C   0  0  0  0  0  0  0  0  0  0  0  0
    2.3650    1.7183    0.0000 C   0  0  0  0  0  0  0  0  0  0  0  0
    1.5650    0.3327    0.0000 C   0  0  0  0  0  0  0  0  0  0  0  0
    2.3650   -1.0530    0.0000 C   0  0  0  0  0  0  0  0  0  0  0  0
    1.2944   -2.2420    0.0000 O   0  0  0  0  0  0  0  0  0  0  0  0
   -0.1672   -1.5912    0.0000 C   0  0  0  0  0  0  0  0  0  0  0  0
   -1.5529   -2.3912    0.0000 C   0  0  0  0  0  0  0  0  0  0  0  0
   -1.5529   -3.9912    0.0000 C   0  0  0  0  0  0  0  0  0  0  0  0
   -2.9385   -4.7912    0.0000 C   0  0  0  0  0  0  0  0  0  0  0  0
   -2.9385   -6.3912    0.0000 C   0  0  0  0  0  0  0  0  0  0  0  0
  1  2  1  0  0  0  0
  1  6  2  0  0  0  0
  2  3  2  0  0  0  0
  2  7  1  0  0  0  0
  3  4  1  0  0  0  0
  4  5  2  0  0  0  0
  4 18  1  0  0  0  0
  5  6  1  0  0  0  0
  5 10  1  0  0  0  0
  6 19  1  0  0  0  0
  7  8  1  0  0  0  0
  7  9  2  0  0  0  0
  8 24  1  0  0  0  0
  8 27  2  0  0  0  0
 10 11  1  0  0  0  0
 11 12  1  0  0  0  0
 12 13  1  0  0  0  0
 13 14  1  0  0  0  0
 13 15  1  0  0  0  0
 14 16  1  0  0  0  0
 15 17  1  0  0  0  0
 20 21  2  0  0  0  0
 20 23  1  0  0  0  0
 21 22  1  0  0  0  0
 22 25  2  0  0  0  0
 23 24  2  0  0  0  0
 24 25  1  0  0  0  0
 25 26  1  0  0  0  0
 26 27  1  0  0  0  0
 27 28  1  0  0  0  0
 28 29  1  0  0  0  0
 29 30  1  0  0  0  0
 30 31  1  0  0  0  0
M  END
> <Acceptable>
false

> <IC50>
0.07

$$$$

Generated by Molecular Materials Informatics

 21 23  0  0  0  0  0  0  0  0999 V2000
    0.0000    0.0000    0.0000 C   0  0  0  0  0  0  0  0  0  0  0  0
   -1.4894   -0.5845    0.0000 C   0  0  0  0  0  0  0  0  0  0  0  0
    0.4716    1.5289    0.0000 C   0  0  0  0  0  0  0  0  0  0  0  0
    1.1729   -1.0883    0.0000 C   0  0  0  0  0  0  0  0  0  0  0  0
   -2.8750    0.2155    0.0000 C   0  0  0  0  0  0  0  0  0  0  0  0
   -1.4894   -2.1845    0.0000 C   0  0  0  0  0  0  0  0  0  0  0  0
   -0.4297    2.8509    0.0000 C   0  0  0  0  0  0  0  0  0  0  0  0
    2.0671    1.6485    0.0000 C   0  0  0  0  0  0  0  0  0  0  0  0
    2.7018   -0.6167    0.0000 C   0  0  0  0  0  0  0  0  0  0  0  0
   -3.1135    1.7976    0.0000 C   0  0  0  0  0  0  0  0  0  0  0  0
   -4.2607   -0.5845    0.0000 C   0  0  0  0  0  0  0  0  0  0  0  0
   -2.8750   -2.9845    0.0000 C   0  0  0  0  0  0  0  0  0  0  0  0
   -2.0252    2.9705    0.0000 C   0  0  0  0  0  0  0  0  0  0  0  0
    0.2645    4.2924    0.0000 C   0  0  0  0  0  0  0  0  0  0  0  0
    2.7613    3.0900    0.0000 C   0  0  0  0  0  0  0  0  0  0  0  0
    3.8747   -1.7049    0.0000 C   0  0  0  0  0  0  0  0  0  0  0  0
   -4.2607   -2.1845    0.0000 C   0  0  0  0  0  0  0  0  0  0  0  0
    1.8600    4.4120    0.0000 C   0  0  0  0  0  0  0  0  0  0  0  0
    5.4036   -1.2333    0.0000 N   0  0  0  0  0  0  0  0  0  0  0  0
    5.7596    0.3266    0.0000 C   0  0  0  0  0  0  0  0  0  0  0  0
    6.5765   -2.3216    0.0000 C   0  0  0  0  0  0  0  0  0  0  0  0
  1  2  1  0  0  0  0
  1  3  1  0  0  0  0
  1  4  2  0  0  0  0
  2  5  2  0  0  0  0
  2  6  1  0  0  0  0
  3  7  2  0  0  0  0
  3  8  1  0  0  0  0
  4  9  1  0  0  0  0
  5 10  1  0  0  0  0
  5 11  1  0  0  0  0
  6 12  2  0  0  0  0
  7 13  1  0  0  0  0
  7 14  1  0  0  0  0
  8 15  2  0  0  0  0
  9 16  1  0  0  0  0
 10 13  1  0  0  0  0
 11 17  2  0  0  0  0
 12 17  1  0  0  0  0
 14 18  2  0  0  0  0
 15 18  1  0  0  0  0
 16 19  1  0  0  0  0
 19 20  1  0  0  0  0
 19 21  1  0  0  0  0
M  END
> <Acceptable>
false

> <IC50>
5.47

$$$$

Generated by Molecular Materials Informatics

 28 29  0  0  0  0  0  0  0  0999 V2000
    3.1514    0.5557    0.0000 Cl  0  0  0  0  0  0  0  0  0  0  0  0
    2.1229    1.7813    0.0000 C   0  0  0  0  0  0  0  0  0  0  0  0
    2.6702    3.2849    0.0000 C   0  0  0  0  0  0  0  0  0  0  0  0
    1.6417    4.5105    0.0000 C   0  0  0  0  0  0  0  0  0  0  0  0
    0.0660    4.2327    0.0000 C   0  0  0  0  0  0  0  0  0  0  0  0
   -0.4812    2.7292    0.0000 C   0  0  0  0  0  0  0  0  0  0  0  0
    0.5472    1.5035    0.0000 C   0  0  0  0  0  0  0  0  0  0  0  0
    0.0000    0.0000    0.0000 C   0  0  0  0  0  0  0  0  0  0  0  0
    0.8000   -1.3856    0.0000 C   0  0  0  0  0  0  0  0  0  0  0  0
    0.0000   -2.7713    0.0000 C   0  0  0  0  0  0  0  0  0  0  0  0
   -1.6000   -2.7713    0.0000 N   0  0  0  0  0  0  0  0  0  0  0  0
   -2.4000   -1.3856    0.0000 C   0  0  0  0  0  0  0  0  0  0  0  0
   -4.0000   -1.3856    0.0000 C   0  0  0  0  0  0  0  0  0  0  0  0
   -4.8000   -2.7713    0.0000 O   0  0  0  0  0  0  0  0  0  0  0  0
   -6.4000   -2.7713    0.0000 C   0  0  0  0  0  0  0  0  0  0  0  0
   -7.2000   -4.1569    0.0000 C   0  0  0  0  0  0  0  0  0  0  0  0
   -8.8000   -4.1569    0.0000 N   0  0  0  0  0  0  0  0  0  0  0  0
   -1.6000    0.0000    0.0000 C   0  0  0  0  0  0  0  0  0  0  0  0
   -2.4000    1.3856    0.0000 C   0  0  0  0  0  0  0  0  0  0  0  0
   -1.6000    2.7713    0.0000 O   0  0  0  0  0  0  0  0  0  0  0  0
   -4.0000    1.3856    0.0000 O   0  0  0  0  0  0  0  0  0  0  0  0
   -4.8000    2.7713    0.0000 C   0  0  0  0  0  0  0  0  0  0  0  0
   -6.4000    2.7713    0.0000 C   0  0  0  0  0  0  0  0  0  0  0  0
    0.8000   -4.1569    0.0000 C   0  0  0  0  0  0  0  0  0  0  0  0
    2.3035   -1.9329    0.0000 C   0  0  0  0  0  0  0  0  0  0  0  0
    3.5292   -0.9044    0.0000 O   0  0  0  0  0  0  0  0  0  0  0  0
    2.5813   -3.5086    0.0000 O   0  0  0  0  0  0  0  0  0  0  0  0
    4.0849   -4.0558    0.0000 C   0  0  0  0  0  0  0  0  0  0  0  0
  1  2  1  0  0  0  0
  2  3  1  0  0  0  0
  2  7  2  0  0  0  0
  3  4  2  0  0  0  0
  4  5  1  0  0  0  0
  5  6  2  0  0  0  0
  6  7  1  0  0  0  0
  8  7  1  6  0  0  0
  8  9  1  0  0  0  0
  8 18  1  0  0  0  0
  9 10  2  0  0  0  0
  9 25  1  0  0  0  0
 10 11  1  0  0  0  0
 10 24  1  0  0  0  0
 11 12  1  0  0  0  0
 12 13  1  0  0  0  0
 12 18  2  0  0  0  0
 13 14  1  0  0  0  0
 14 15  1  0  0  0  0
 15 16  1  0  0  0  0
 16 17  1  0  0  0  0
 18 19  1  0  0  0  0
 19 20  2  0  0  0  0
 19 21  1  0  0  0  0
 21 22  1  0  0  0  0
 22 23  1  0  0  0  0
 25 26  2  0  0  0  0
 25 27  1  0  0  0  0
 27 28  1  0  0  0  0
M  END
> <Acceptable>
false

> <IC50>
2

$$$$

Generated by Molecular Materials Informatics

 22 25  0  0  0  0  0  0  0  0999 V2000
    2.5328   -4.7821    0.0000 Cl  0  0  0  0  0  0  0  0  0  0  0  0
   -3.1135   -1.7976    0.0000 O   0  0  0  0  0  0  0  0  0  0  0  0
    1.5289    0.4716    0.0000 N   0  0  0  0  0  0  0  0  0  0  0  0
   -1.0883    1.1729    0.0000 N   0  0  0  0  0  0  0  0  0  0  0  0
    4.5867    1.4148    0.0000 N   0  0  0  0  0  0  0  0  0  0  0  0
   -0.2385   -1.5821    0.0000 C   0  0  0  0  0  0  0  0  0  0  0  0
    0.0000    0.0000    0.0000 C   0  0  0  0  0  0  0  0  0  0  0  0
   -1.6241   -2.3821    0.0000 C   0  0  0  0  0  0  0  0  0  0  0  0
   -2.6838    1.0533    0.0000 C   0  0  0  0  0  0  0  0  0  0  0  0
   -3.5851   -0.2687    0.0000 C   0  0  0  0  0  0  0  0  0  0  0  0
    1.1472   -2.3821    0.0000 C   0  0  0  0  0  0  0  0  0  0  0  0
   -1.6241   -3.9821    0.0000 C   0  0  0  0  0  0  0  0  0  0  0  0
    1.1472   -3.9821    0.0000 C   0  0  0  0  0  0  0  0  0  0  0  0
   -3.3780    2.4949    0.0000 C   0  0  0  0  0  0  0  0  0  0  0  0
   -0.2385   -4.7821    0.0000 C   0  0  0  0  0  0  0  0  0  0  0  0
   -5.1806   -0.1491    0.0000 C   0  0  0  0  0  0  0  0  0  0  0  0
    1.8849    2.0315    0.0000 C   0  0  0  0  0  0  0  0  0  0  0  0
    2.7018   -0.6167    0.0000 C   0  0  0  0  0  0  0  0  0  0  0  0
   -4.9735    2.6144    0.0000 C   0  0  0  0  0  0  0  0  0  0  0  0
   -5.8749    1.2925    0.0000 C   0  0  0  0  0  0  0  0  0  0  0  0
    3.4139    2.5031    0.0000 C   0  0  0  0  0  0  0  0  0  0  0  0
    4.2307   -0.1451    0.0000 C   0  0  0  0  0  0  0  0  0  0  0  0
  1 13  1  0  0  0  0
  2  8  1  0  0  0  0
  2 10  1  0  0  0  0
  3  7  1  0  0  0  0
  3 17  1  0  0  0  0
  3 18  1  0  0  0  0
  4  7  2  0  0  0  0
  4  9  1  0  0  0  0
  5 21  1  0  0  0  0
  5 22  1  0  0  0  0
  6  7  1  0  0  0  0
  6  8  2  0  0  0  0
  6 11  1  0  0  0  0
  8 12  1  0  0  0  0
  9 10  2  0  0  0  0
  9 14  1  0  0  0  0
 10 16  1  0  0  0  0
 11 13  2  0  0  0  0
 12 15  2  0  0  0  0
 13 15  1  0  0  0  0
 14 19  2  0  0  0  0
 16 20  2  0  0  0  0
 17 21  1  0  0  0  0
 18 22  1  0  0  0  0
 19 20  1  0  0  0  0
M  END
> <Acceptable>
false

> <IC50>
5.1

$$$$

Generated by Molecular Materials Informatics

 25 27  0  0  0  0  0  0  0  0999 V2000
   -1.0530    2.3650    0.0000 S   0  0  0  0  0  0  0  0  0  0  0  0
    2.4365   -1.6745    0.0000 O   0  0  0  0  0  0  0  0  0  0  0  0
   -3.9912   -1.5529    0.0000 O   0  0  0  0  0  0  0  0  0  0  0  0
   -1.5912   -2.9385    0.0000 O   0  0  0  0  0  0  0  0  0  0  0  0
    4.7489   -0.2204    0.0000 O   0  0  0  0  0  0  0  0  0  0  0  0
   11.7095   -0.6567    0.0000 O   0  0  0  0  0  0  0  0  0  0  0  0
    0.0000    0.0000    0.0000 N   0  0  0  0  0  0  0  0  0  0  0  0
    3.2396    2.1038    0.0000 N   0  0  0  0  0  0  0  0  0  0  0  0
    5.9233    3.8466    0.0000 N   0  0  0  0  0  0  0  0  0  0  0  0
    0.3327    1.5650    0.0000 C   0  0  0  0  0  0  0  0  0  0  0  0
   -2.2420    1.2944    0.0000 C   0  0  0  0  0  0  0  0  0  0  0  0
   -1.5912   -0.1672    0.0000 C   0  0  0  0  0  0  0  0  0  0  0  0
    1.8977    1.2324    0.0000 C   0  0  0  0  0  0  0  0  0  0  0  0
    1.5650   -0.3327    0.0000 C   0  0  0  0  0  0  0  0  0  0  0  0
   -3.6277    0.4944    0.0000 C   0  0  0  0  0  0  0  0  0  0  0  0
   -3.1825    2.5889    0.0000 C   0  0  0  0  0  0  0  0  0  0  0  0
   -2.3912   -1.5529    0.0000 C   0  0  0  0  0  0  0  0  0  0  0  0
    4.6652    1.3774    0.0000 C   0  0  0  0  0  0  0  0  0  0  0  0
    6.0071    2.2488    0.0000 C   0  0  0  0  0  0  0  0  0  0  0  0
    7.4327    1.5225    0.0000 C   0  0  0  0  0  0  0  0  0  0  0  0
    8.7745    2.3939    0.0000 C   0  0  0  0  0  0  0  0  0  0  0  0
    7.5164   -0.0754    0.0000 C   0  0  0  0  0  0  0  0  0  0  0  0
   10.2001    1.6675    0.0000 C   0  0  0  0  0  0  0  0  0  0  0  0
    8.9420   -0.8017    0.0000 C   0  0  0  0  0  0  0  0  0  0  0  0
   10.2839    0.0697    0.0000 C   0  0  0  0  0  0  0  0  0  0  0  0
 10  1  1  6  0  0  0
  1 11  1  0  0  0  0
  2 14  2  0  0  0  0
  3 17  1  0  0  0  0
  4 17  2  0  0  0  0
  5 18  2  0  0  0  0
  6 25  1  0  0  0  0
  7 10  1  0  0  0  0
  7 12  1  0  0  0  0
  7 14  1  0  0  0  0
 13  8  1  6  0  0  0
  8 18  1  0  0  0  0
 19  9  1  6  0  0  0
 10 13  1  0  0  0  0
 11 12  1  0  0  0  0
 11 15  1  0  0  0  0
 11 16  1  0  0  0  0
 12 17  1  1  0  0  0
 13 14  1  0  0  0  0
 18 19  1  0  0  0  0
 19 20  1  0  0  0  0
 20 21  2  0  0  0  0
 20 22  1  0  0  0  0
 21 23  1  0  0  0  0
 22 24  2  0  0  0  0
 23 25  2  0  0  0  0
 24 25  1  0  0  0  0
M  END
> <Acceptable>
true

> <IC50>
>3000

$$$$

Generated by Molecular Materials Informatics

 10 10  0  0  0  0  0  0  0  0999 V2000
   -2.7713   -1.6000    0.0000 N   0  0  0  0  0  0  0  0  0  0  0  0
   -2.7713    0.0000    0.0000 C   0  0  0  0  0  0  0  0  0  0  0  0
   -4.1569    0.8000    0.0000 C   0  0  0  0  0  0  0  0  0  0  0  0
   -1.3856    0.8000    0.0000 C   0  0  0  0  0  0  0  0  0  0  0  0
    0.0000    0.0000    0.0000 C   0  0  0  0  0  0  0  0  0  0  0  0
    0.0000   -1.6000    0.0000 C   0  0  0  0  0  0  0  0  0  0  0  0
    1.3856   -2.4000    0.0000 C   0  0  0  0  0  0  0  0  0  0  0  0
    2.7713   -1.6000    0.0000 C   0  0  0  0  0  0  0  0  0  0  0  0
    2.7713    0.0000    0.0000 C   0  0  0  0  0  0  0  0  0  0  0  0
    1.3856    0.8000    0.0000 C   0  0  0  0  0  0  0  0  0  0  0  0
  1  2  1  0  0  0  0
  2  3  1  6  0  0  0
  2  4  1  0  0  0  0
  4  5  1  0  0  0  0
  5  6  1  0  0  0  0
  5 10  2  0  0  0  0
  6  7  2  0  0  0  0
  7  8  1  0  0  0  0
  8  9  2  0  0  0  0
  9 10  1  0  0  0  0
M  END
> <Acceptable>
true

> <IC50>
N/A

$$$$

Generated by Molecular Materials Informatics

 35 37  0  0  0  0  0  0  0  0999 V2000
    0.0000    0.0000    0.0000 S   0  0  0  0  0  0  0  0  0  0  0  0
    1.3856    0.8000    0.0000 O   0  0  0  0  0  0  0  0  0  0  0  0
   -1.3856   -0.8000    0.0000 O   0  0  0  0  0  0  0  0  0  0  0  0
   -0.8000    1.3856    0.0000 N   0  0  0  0  0  0  0  0  0  0  0  0
    0.0000    2.7713    0.0000 C   0  0  0  0  0  0  0  0  0  0  0  0
    1.5757    3.0491    0.0000 C   0  0  0  0  0  0  0  0  0  0  0  0
    2.6042    1.8234    0.0000 C   0  0  0  0  0  0  0  0  0  0  0  0
    2.1229    4.5526    0.0000 C   0  0  0  0  0  0  0  0  0  0  0  0
   -2.4000    1.3856    0.0000 C   0  0  0  0  0  0  0  0  0  0  0  0
   -3.2000    2.7713    0.0000 C   0  0  0  0  0  0  0  0  0  0  0  0
   -2.4000    4.1569    0.0000 O   0  0  0  0  0  0  0  0  0  0  0  0
   -4.8000    2.7713    0.0000 C   0  0  0  0  0  0  0  0  0  0  0  0
   -5.6000    1.3856    0.0000 N   0  0  0  0  0  0  0  0  0  0  0  0
   -4.8000    0.0000    0.0000 C   0  0  0  0  0  0  0  0  0  0  0  0
   -3.2000    0.0000    0.0000 O   0  0  0  0  0  0  0  0  0  0  0  0
   -5.6000   -1.3856    0.0000 O   0  0  0  0  0  0  0  0  0  0  0  0
   -7.2000   -1.3856    0.0000 C   0  0  0  0  0  0  0  0  0  0  0  0
   -8.1405   -2.6801    0.0000 C   0  0  0  0  0  0  0  0  0  0  0  0
   -9.6621   -2.1856    0.0000 O   0  0  0  0  0  0  0  0  0  0  0  0
   -9.6621   -0.5856    0.0000 C   0  0  0  0  0  0  0  0  0  0  0  0
   -8.1405   -0.0912    0.0000 C   0  0  0  0  0  0  0  0  0  0  0  0
   -5.6000    4.1569    0.0000 C   0  0  0  0  0  0  0  0  0  0  0  0
   -7.2000    4.1569    0.0000 C   0  0  0  0  0  0  0  0  0  0  0  0
   -8.0000    5.5426    0.0000 C   0  0  0  0  0  0  0  0  0  0  0  0
   -9.6000    5.5426    0.0000 C   0  0  0  0  0  0  0  0  0  0  0  0
  -10.4000    4.1569    0.0000 C   0  0  0  0  0  0  0  0  0  0  0  0
   -9.6000    2.7713    0.0000 C   0  0  0  0  0  0  0  0  0  0  0  0
   -8.0000    2.7713    0.0000 C   0  0  0  0  0  0  0  0  0  0  0  0
    0.8000   -1.3856    0.0000 C   0  0  0  0  0  0  0  0  0  0  0  0
    0.0000   -2.7713    0.0000 C   0  0  0  0  0  0  0  0  0  0  0  0
    0.8000   -4.1569    0.0000 C   0  0  0  0  0  0  0  0  0  0  0  0
    2.4000   -4.1569    0.0000 C   0  0  0  0  0  0  0  0  0  0  0  0
    3.2000   -5.5426    0.0000 N   0  0  0  0  0  0  0  0  0  0  0  0
    3.2000   -2.7713    0.0000 C   0  0  0  0  0  0  0  0  0  0  0  0
    2.4000   -1.3856    0.0000 C   0  0  0  0  0  0  0  0  0  0  0  0
  1  2  2  0  0  0  0
  1  3  2  0  0  0  0
  1  4  1  0  0  0  0
  1 29  1  0  0  0  0
  4  5  1  0  0  0  0
  4  9  1  6  0  0  0
  5  6  1  0  0  0  0
  6  7  1  0  0  0  0
  6  8  1  0  0  0  0
  9 10  1  0  0  0  0
 10 11  1  6  0  0  0
 10 12  1  0  0  0  0
 12 13  1  0  0  0  0
 12 22  1  1  0  0  0
 13 14  1  0  0  0  0
 14 15  2  0  0  0  0
 14 16  1  0  0  0  0
 17 16  1  6  0  0  0
 17 18  1  0  0  0  0
 17 21  1  0  0  0  0
 18 19  1  0  0  0  0
 19 20  1  0  0  0  0
 20 21  1  0  0  0  0
 22 23  1  0  0  0  0
 23 24  1  0  0  0  0
 23 28  2  0  0  0  0
 24 25  2  0  0  0  0
 25 26  1  0  0  0  0
 26 27  2  0  0  0  0
 27 28  1  0  0  0  0
 29 30  1  0  0  0  0
 29 35  2  0  0  0  0
 30 31  2  0  0  0  0
 31 32  1  0  0  0  0
 32 33  1  0  0  0  0
 32 34  2  0  0  0  0
 34 35  1  0  0  0  0
M  END
> <Acceptable>
true

> <IC50>
N/A

$$$$

Generated by Molecular Materials Informatics

 28 31  0  0  0  0  0  0  0  0999 V2000
    8.3138   -1.6000    0.0000 S   0  0  0  0  0  0  0  0  0  0  0  0
    7.5138   -0.2144    0.0000 O   0  0  0  0  0  0  0  0  0  0  0  0
    9.1138   -2.9856    0.0000 O   0  0  0  0  0  0  0  0  0  0  0  0
    6.9282   -2.4000    0.0000 N   0  0  0  0  0  0  0  0  0  0  0  0
    5.5426   -1.6000    0.0000 C   0  0  0  0  0  0  0  0  0  0  0  0
    4.1569   -2.4000    0.0000 C   0  0  0  0  0  0  0  0  0  0  0  0
    2.7713   -1.6000    0.0000 C   0  0  0  0  0  0  0  0  0  0  0  0
    2.7713    0.0000    0.0000 C   0  0  0  0  0  0  0  0  0  0  0  0
    1.3856    0.8000    0.0000 N   0  0  0  0  0  0  0  0  0  0  0  0
    0.0000    0.0000    0.0000 C   0  0  0  0  0  0  0  0  0  0  0  0
    0.0000   -1.6000    0.0000 C   0  0  0  0  0  0  0  0  0  0  0  0
    1.3856   -2.4000    0.0000 C   0  0  0  0  0  0  0  0  0  0  0  0
    1.3856   -4.0000    0.0000 C   0  0  0  0  0  0  0  0  0  0  0  0
    0.0000   -4.8000    0.0000 C   0  0  0  0  0  0  0  0  0  0  0  0
   -1.3856   -4.0000    0.0000 C   0  0  0  0  0  0  0  0  0  0  0  0
   -1.3856   -2.4000    0.0000 C   0  0  0  0  0  0  0  0  0  0  0  0
   -2.7713   -1.6000    0.0000 N   0  0  0  0  0  0  0  0  0  0  0  0
   -2.7713    0.0000    0.0000 C   0  0  0  0  0  0  0  0  0  0  0  0
   -4.1569    0.8000    0.0000 C   0  0  0  0  0  0  0  0  0  0  0  0
   -4.1569    2.4000    0.0000 C   0  0  0  0  0  0  0  0  0  0  0  0
   -2.7713    3.2000    0.0000 C   0  0  0  0  0  0  0  0  0  0  0  0
   -1.3856    2.4000    0.0000 C   0  0  0  0  0  0  0  0  0  0  0  0
   -1.3856    0.8000    0.0000 C   0  0  0  0  0  0  0  0  0  0  0  0
    4.1569    0.8000    0.0000 C   0  0  0  0  0  0  0  0  0  0  0  0
    4.1569    2.4000    0.0000 O   0  0  0  0  0  0  0  0  0  0  0  0
    5.5426    3.2000    0.0000 C   0  0  0  0  0  0  0  0  0  0  0  0
    5.5426    0.0000    0.0000 C   0  0  0  0  0  0  0  0  0  0  0  0
    9.6995   -0.8000    0.0000 C   0  0  0  0  0  0  0  0  0  0  0  0
  1  2  2  0  0  0  0
  1  3  2  0  0  0  0
  1  4  1  0  0  0  0
  1 28  1  0  0  0  0
  4  5  1  0  0  0  0
  5  6  1  0  0  0  0
  5 27  2  0  0  0  0
  6  7  2  0  0  0  0
  7  8  1  0  0  0  0
  8  9  1  0  0  0  0
  8 24  2  0  0  0  0
  9 10  1  0  0  0  0
 10 11  1  0  0  0  0
 10 23  2  0  0  0  0
 11 12  1  0  0  0  0
 11 16  2  0  0  0  0
 12 13  2  0  0  0  0
 13 14  1  0  0  0  0
 14 15  2  0  0  0  0
 15 16  1  0  0  0  0
 16 17  1  0  0  0  0
 17 18  2  0  0  0  0
 18 19  1  0  0  0  0
 18 23  1  0  0  0  0
 19 20  2  0  0  0  0
 20 21  1  0  0  0  0
 21 22  2  0  0  0  0
 22 23  1  0  0  0  0
 24 25  1  0  0  0  0
 24 27  1  0  0  0  0
 25 26  1  0  0  0  0
M  END
> <Acceptable>
false

> <IC50>
0.21

$$$$

Generated by Molecular Materials Informatics

 16 18  0  0  0  0  0  0  0  0999 V2000
   -4.1569   -0.8000    0.0000 Cl  0  0  0  0  0  0  0  0  0  0  0  0
   -2.7713    0.0000    0.0000 C   0  0  0  0  0  0  0  0  0  0  0  0
   -2.7713    1.6000    0.0000 C   0  0  0  0  0  0  0  0  0  0  0  0
   -1.3856    2.4000    0.0000 C   0  0  0  0  0  0  0  0  0  0  0  0
    0.0000    1.6000    0.0000 C   0  0  0  0  0  0  0  0  0  0  0  0
    1.3856    2.4000    0.0000 N   0  0  0  0  0  0  0  0  0  0  0  0
    2.7713    1.6000    0.0000 C   0  0  0  0  0  0  0  0  0  0  0  0
    4.2930    2.0944    0.0000 N   0  0  0  0  0  0  0  0  0  0  0  0
    5.2334    0.8000    0.0000 C   0  0  0  0  0  0  0  0  0  0  0  0
    6.8334    0.8000    0.0000 O   0  0  0  0  0  0  0  0  0  0  0  0
    4.2930   -0.4944    0.0000 C   0  0  0  0  0  0  0  0  0  0  0  0
    2.7713    0.0000    0.0000 N   0  0  0  0  0  0  0  0  0  0  0  0
    1.3856   -0.8000    0.0000 C   0  0  0  0  0  0  0  0  0  0  0  0
    0.0000    0.0000    0.0000 C   0  0  0  0  0  0  0  0  0  0  0  0
   -1.3856   -0.8000    0.0000 C   0  0  0  0  0  0  0  0  0  0  0  0
   -1.3856   -2.4000    0.0000 Cl  0  0  0  0  0  0  0  0  0  0  0  0
  1  2  1  0  0  0  0
  2  3  1  0  0  0  0
  2 15  2  0  0  0  0
  3  4  2  0  0  0  0
  4  5  1  0  0  0  0
  5  6  1  0  0  0  0
  5 14  2  0  0  0  0
  6  7  2  0  0  0  0
  7  8  1  0  0  0  0
  7 12  1  0  0  0  0
  8  9  1  0  0  0  0
  9 10  2  0  0  0  0
  9 11  1  0  0  0  0
 11 12  1  0  0  0  0
 12 13  1  0  0  0  0
 13 14  1  0  0  0  0
 14 15  1  0  0  0  0
 15 16  1  0  0  0  0
M  END
> <Acceptable>
true

> <IC50>
N/A

$$$$

Generated by Molecular Materials Informatics

 22 23  0  0  0  0  0  0  0  0999 V2000
   -3.2000   -2.7713    0.0000 N   0  0  0  0  0  0  0  0  0  0  0  0
   -2.4000   -1.3856    0.0000 C   0  0  0  0  0  0  0  0  0  0  0  0
   -1.6000    0.0000    0.0000 C   0  0  0  0  0  0  0  0  0  0  0  0
   -2.8694    0.9740    0.0000 C   0  0  0  0  0  0  0  0  0  0  0  0
   -1.8088    1.5863    0.0000 C   0  0  0  0  0  0  0  0  0  0  0  0
    0.0000    0.0000    0.0000 C   0  0  0  0  0  0  0  0  0  0  0  0
    0.8000   -1.3856    0.0000 C   0  0  0  0  0  0  0  0  0  0  0  0
    2.4000   -1.3856    0.0000 C   0  0  0  0  0  0  0  0  0  0  0  0
    3.2000    0.0000    0.0000 C   0  0  0  0  0  0  0  0  0  0  0  0
    2.4000    1.3856    0.0000 C   0  0  0  0  0  0  0  0  0  0  0  0
    0.8000    1.3856    0.0000 C   0  0  0  0  0  0  0  0  0  0  0  0
    3.2000    2.7713    0.0000 C   0  0  0  0  0  0  0  0  0  0  0  0
    1.9306    3.7453    0.0000 C   0  0  0  0  0  0  0  0  0  0  0  0
    2.9912    4.3576    0.0000 C   0  0  0  0  0  0  0  0  0  0  0  0
    4.8000    2.7713    0.0000 C   0  0  0  0  0  0  0  0  0  0  0  0
    6.4000    2.7713    0.0000 N   0  0  0  0  0  0  0  0  0  0  0  0
    3.2000   -2.7713    0.0000 C   0  0  0  0  0  0  0  0  0  0  0  0
    4.8000   -2.7713    0.0000 N   0  0  0  0  0  0  0  0  0  0  0  0
    5.7405   -4.0657    0.0000 N   0  0  0  0  0  0  0  0  0  0  0  0
    7.2621   -3.5713    0.0000 C   0  0  0  0  0  0  0  0  0  0  0  0
    7.2621   -1.9713    0.0000 N   0  0  0  0  0  0  0  0  0  0  0  0
    5.7405   -1.4769    0.0000 C   0  0  0  0  0  0  0  0  0  0  0  0
  1  2  3  0  0  0  0
  2  3  1  0  0  0  0
  3  4  1  0  0  0  0
  3  5  1  0  0  0  0
  3  6  1  0  0  0  0
  6  7  1  0  0  0  0
  6 11  2  0  0  0  0
  7  8  2  0  0  0  0
  8  9  1  0  0  0  0
  8 17  1  0  0  0  0
  9 10  2  0  0  0  0
 10 11  1  0  0  0  0
 10 12  1  0  0  0  0
 12 13  1  0  0  0  0
 12 14  1  0  0  0  0
 12 15  1  0  0  0  0
 15 16  3  0  0  0  0
 17 18  1  0  0  0  0
 18 19  1  0  0  0  0
 18 22  1  0  0  0  0
 19 20  2  0  0  0  0
 20 21  1  0  0  0  0
 21 22  2  0  0  0  0
M  END
> <Acceptable>
true

> <IC50>
N/A

$$$$

Generated by Molecular Materials Informatics

 27 30  0  0  0  0  0  0  0  0999 V2000
   -2.7713    1.6000    0.0000 C   0  0  0  0  0  0  0  0  0  0  0  0
   -2.7713    0.0000    0.0000 C   0  0  0  0  0  0  0  0  0  0  0  0
   -1.3856   -0.8000    0.0000 C   0  0  0  0  0  0  0  0  0  0  0  0
    0.0000    0.0000    0.0000 C   0  0  0  0  0  0  0  0  0  0  0  0
    0.0000    1.6000    0.0000 C   0  0  0  0  0  0  0  0  0  0  0  0
   -1.3856    2.4000    0.0000 C   0  0  0  0  0  0  0  0  0  0  0  0
    1.3856    2.4000    0.0000 C   0  0  0  0  0  0  0  0  0  0  0  0
    2.7713    1.6000    0.0000 C   0  0  0  0  0  0  0  0  0  0  0  0
    2.7713    0.0000    0.0000 C   0  0  0  0  0  0  0  0  0  0  0  0
    1.3856   -0.8000    0.0000 C   0  0  0  0  0  0  0  0  0  0  0  0
    1.3856    4.0000    0.0000 O   0  0  0  0  0  0  0  0  0  0  0  0
   -1.3856   -2.4000    0.0000 O   0  0  0  0  0  0  0  0  0  0  0  0
    0.0000   -3.2000    0.0000 C   0  0  0  0  0  0  0  0  0  0  0  0
    1.3856   -2.4000    0.0000 C   0  0  0  0  0  0  0  0  0  0  0  0
    4.1569    2.4000    0.0000 C   0  0  0  0  0  0  0  0  0  0  0  0
    4.1569    4.0000    0.0000 O   0  0  0  0  0  0  0  0  0  0  0  0
   -4.1569   -0.8000    0.0000 N   0  0  0  0  0  0  0  0  0  0  0  0
   -5.5426    0.0000    0.0000 C   0  0  0  0  0  0  0  0  0  0  0  0
   -6.9282   -0.8000    0.0000 C   0  0  0  0  0  0  0  0  0  0  0  0
   -6.9282   -2.4000    0.0000 C   0  0  0  0  0  0  0  0  0  0  0  0
   -5.5426   -3.2000    0.0000 C   0  0  0  0  0  0  0  0  0  0  0  0
   -4.1569   -2.4000    0.0000 C   0  0  0  0  0  0  0  0  0  0  0  0
   -4.1569    2.4000    0.0000 F   0  0  0  0  0  0  0  0  0  0  0  0
    5.5426    1.6000    0.0000 O   0  0  0  0  0  0  0  0  0  0  0  0
   -8.3138   -3.2000    0.0000 C   0  0  0  0  0  0  0  0  0  0  0  0
   -1.3856    4.0000    0.0000 N   0  0  0  0  0  0  0  0  0  0  0  0
    2.7713   -3.2000    0.0000 C   0  0  0  0  0  0  0  0  0  0  0  0
  1  2  1  0  0  0  0
  1  6  2  0  0  0  0
  1 23  1  0  0  0  0
  2  3  2  0  0  0  0
  2 17  1  0  0  0  0
  3  4  1  0  0  0  0
  3 12  1  0  0  0  0
  4  5  2  0  0  0  0
  4 10  1  0  0  0  0
  5  6  1  0  0  0  0
  5  7  1  0  0  0  0
  6 26  1  0  0  0  0
  7  8  1  0  0  0  0
  7 11  2  0  0  0  0
  8  9  2  0  0  0  0
  8 15  1  0  0  0  0
 10  9  1  6  0  0  0
 10 14  1  0  0  0  0
 12 13  1  0  0  0  0
 13 14  1  0  0  0  0
 14 27  1  1  0  0  0
 15 16  1  0  0  0  0
 15 24  2  0  0  0  0
 17 18  1  0  0  0  0
 17 22  1  0  0  0  0
 18 19  1  0  0  0  0
 19 20  1  0  0  0  0
 20 21  1  0  0  0  0
 20 25  1  0  0  0  0
 21 22  1  0  0  0  0
M  END
> <Acceptable>
true

> <IC50>
460.37

$$$$

Generated by Molecular Materials Informatics

 20 23  0  0  0  0  0  0  0  0999 V2000
    0.0000    0.0000    0.0000 C   0  0  0  0  0  0  0  0  0  0  0  0
    1.6000    0.0000    0.0000 C   0  0  0  0  0  0  0  0  0  0  0  0
   -0.8000   -1.3856    0.0000 C   0  0  0  0  0  0  0  0  0  0  0  0
   -0.8000    1.3856    0.0000 C   0  0  0  0  0  0  0  0  0  0  0  0
    2.4000   -1.3856    0.0000 C   0  0  0  0  0  0  0  0  0  0  0  0
    2.4000    1.3856    0.0000 C   0  0  0  0  0  0  0  0  0  0  0  0
    0.0000   -2.7713    0.0000 C   0  0  0  0  0  0  0  0  0  0  0  0
   -2.4000   -1.3856    0.0000 N   0  0  0  0  0  0  0  0  0  0  0  0
   -2.4000    1.3856    0.0000 C   0  0  0  0  0  0  0  0  0  0  0  0
    0.0000    2.7713    0.0000 C   0  0  0  0  0  0  0  0  0  0  0  0
    1.6000   -2.7713    0.0000 C   0  0  0  0  0  0  0  0  0  0  0  0
    4.0000   -1.3856    0.0000 C   0  0  0  0  0  0  0  0  0  0  0  0
    1.6000    2.7713    0.0000 C   0  0  0  0  0  0  0  0  0  0  0  0
   -3.2000    0.0000    0.0000 C   0  0  0  0  0  0  0  0  0  0  0  0
   -3.2000   -2.7713    0.0000 C   0  0  0  0  0  0  0  0  0  0  0  0
    2.4000   -4.1569    0.0000 C   0  0  0  0  0  0  0  0  0  0  0  0
    4.8000   -2.7713    0.0000 C   0  0  0  0  0  0  0  0  0  0  0  0
    4.8000    0.0000    0.0000 O   0  0  0  0  0  0  0  0  0  0  0  0
    4.0000   -4.1569    0.0000 C   0  0  0  0  0  0  0  0  0  0  0  0
    6.4000   -2.7713    0.0000 O   0  0  0  0  0  0  0  0  0  0  0  0
  1  2  2  0  0  0  0
  3  1  1  1  0  0  0
  1  4  1  0  0  0  0
  2  5  1  0  0  0  0
  2  6  1  0  0  0  0
  3  7  1  0  0  0  0
  3  8  1  0  0  0  0
  4  9  1  0  0  0  0
  4 10  2  0  0  0  0
  5 11  2  0  0  0  0
  5 12  1  0  0  0  0
  6 13  2  0  0  0  0
  7 11  1  0  0  0  0
  8 14  1  0  0  0  0
  8 15  1  6  0  0  0
  9 14  1  0  0  0  0
 10 13  1  0  0  0  0
 11 16  1  0  0  0  0
 12 17  2  0  0  0  0
 12 18  1  0  0  0  0
 16 19  2  0  0  0  0
 17 19  1  0  0  0  0
 17 20  1  0  0  0  0
M  END
> <Acceptable>
false

> <IC50>
3

$$$$

Generated by Molecular Materials Informatics

 20 23  0  0  0  0  0  0  0  0999 V2000
    0.0000    2.7713    0.0000 C   0  0  0  0  0  0  0  0  0  0  0  0
   -0.8000    1.3856    0.0000 C   0  0  0  0  0  0  0  0  0  0  0  0
   -2.4000    1.3856    0.0000 N   0  0  0  0  0  0  0  0  0  0  0  0
   -3.2000    0.0000    0.0000 C   0  0  0  0  0  0  0  0  0  0  0  0
   -2.4000   -1.3856    0.0000 C   0  0  0  0  0  0  0  0  0  0  0  0
    1.6000    2.7713    0.0000 C   0  0  0  0  0  0  0  0  0  0  0  0
    2.4000    1.3856    0.0000 C   0  0  0  0  0  0  0  0  0  0  0  0
    4.0000    1.3856    0.0000 C   0  0  0  0  0  0  0  0  0  0  0  0
    4.8000    2.7713    0.0000 C   0  0  0  0  0  0  0  0  0  0  0  0
    4.0000    4.1569    0.0000 C   0  0  0  0  0  0  0  0  0  0  0  0
    2.4000    4.1569    0.0000 C   0  0  0  0  0  0  0  0  0  0  0  0
    1.6000    0.0000    0.0000 C   0  0  0  0  0  0  0  0  0  0  0  0
    0.0000    0.0000    0.0000 C   0  0  0  0  0  0  0  0  0  0  0  0
   -0.8000   -1.3856    0.0000 C   0  0  0  0  0  0  0  0  0  0  0  0
    0.0000   -2.7713    0.0000 C   0  0  0  0  0  0  0  0  0  0  0  0
    1.6000   -2.7713    0.0000 C   0  0  0  0  0  0  0  0  0  0  0  0
    2.4000   -1.3856    0.0000 C   0  0  0  0  0  0  0  0  0  0  0  0
   -3.2000    2.7713    0.0000 C   0  0  0  0  0  0  0  0  0  0  0  0
    4.8000    0.0000    0.0000 O   0  0  0  0  0  0  0  0  0  0  0  0
    6.4000    2.7713    0.0000 O   0  0  0  0  0  0  0  0  0  0  0  0
  2  1  1  1  0  0  0
  1  6  1  0  0  0  0
  2  3  1  0  0  0  0
  2 13  1  0  0  0  0
  3  4  1  0  0  0  0
  3 18  1  6  0  0  0
  4  5  1  0  0  0  0
  5 14  1  0  0  0  0
  6  7  1  0  0  0  0
  6 11  2  0  0  0  0
  7  8  2  0  0  0  0
  7 12  1  0  0  0  0
  8  9  1  0  0  0  0
  8 19  1  0  0  0  0
  9 10  2  0  0  0  0
  9 20  1  0  0  0  0
 10 11  1  0  0  0  0
 12 13  1  0  0  0  0
 12 17  2  0  0  0  0
 13 14  2  0  0  0  0
 14 15  1  0  0  0  0
 15 16  2  0  0  0  0
 16 17  1  0  0  0  0
M  END
> <Acceptable>
false

> <IC50>
2.4

$$$$

Generated by Molecular Materials Informatics

 24 26  0  0  0  0  0  0  0  0999 V2000
    1.6000    0.0000    0.0000 N   0  0  0  0  0  0  0  0  0  0  0  0
    6.4000   -2.7713    0.0000 N   0  0  0  0  0  0  0  0  0  0  0  0
    0.0000    0.0000    0.0000 C   0  0  0  0  0  0  0  0  0  0  0  0
   -0.9405    1.2944    0.0000 C   0  0  0  0  0  0  0  0  0  0  0  0
   -0.9405   -1.2944    0.0000 C   0  0  0  0  0  0  0  0  0  0  0  0
   -2.4621    0.8000    0.0000 C   0  0  0  0  0  0  0  0  0  0  0  0
   -2.4621   -0.8000    0.0000 C   0  0  0  0  0  0  0  0  0  0  0  0
    2.4000   -1.3856    0.0000 C   0  0  0  0  0  0  0  0  0  0  0  0
    4.0000   -1.3856    0.0000 C   0  0  0  0  0  0  0  0  0  0  0  0
    2.4000    1.3856    0.0000 C   0  0  0  0  0  0  0  0  0  0  0  0
   -3.8478    1.6000    0.0000 C   0  0  0  0  0  0  0  0  0  0  0  0
   -3.8478   -1.6000    0.0000 C   0  0  0  0  0  0  0  0  0  0  0  0
    4.8000   -2.7713    0.0000 C   0  0  0  0  0  0  0  0  0  0  0  0
   -5.2334    0.8000    0.0000 C   0  0  0  0  0  0  0  0  0  0  0  0
   -5.2334   -0.8000    0.0000 C   0  0  0  0  0  0  0  0  0  0  0  0
    4.0000    1.3856    0.0000 C   0  0  0  0  0  0  0  0  0  0  0  0
    1.6000    2.7713    0.0000 C   0  0  0  0  0  0  0  0  0  0  0  0
    7.2000   -1.3856    0.0000 C   0  0  0  0  0  0  0  0  0  0  0  0
    7.2000   -4.1569    0.0000 C   0  0  0  0  0  0  0  0  0  0  0  0
    4.8000    2.7713    0.0000 C   0  0  0  0  0  0  0  0  0  0  0  0
    2.4000    4.1569    0.0000 C   0  0  0  0  0  0  0  0  0  0  0  0
    8.8000   -1.3856    0.0000 C   0  0  0  0  0  0  0  0  0  0  0  0
    8.8000   -4.1569    0.0000 C   0  0  0  0  0  0  0  0  0  0  0  0
    4.0000    4.1569    0.0000 C   0  0  0  0  0  0  0  0  0  0  0  0
  1  3  1  0  0  0  0
  1  8  1  0  0  0  0
  1 10  1  0  0  0  0
  2 13  1  0  0  0  0
  2 18  1  0  0  0  0
  2 19  1  0  0  0  0
  3  4  1  0  0  0  0
  3  5  1  0  0  0  0
  4  6  1  0  0  0  0
  5  7  1  0  0  0  0
  6  7  2  0  0  0  0
  6 11  1  0  0  0  0
  7 12  1  0  0  0  0
  8  9  1  0  0  0  0
  9 13  1  0  0  0  0
 10 16  2  0  0  0  0
 10 17  1  0  0  0  0
 11 14  2  0  0  0  0
 12 15  2  0  0  0  0
 14 15  1  0  0  0  0
 16 20  1  0  0  0  0
 17 21  2  0  0  0  0
 18 22  1  0  0  0  0
 19 23  1  0  0  0  0
 20 24  2  0  0  0  0
 21 24  1  0  0  0  0
M  END
> <Acceptable>
true

> <IC50>
N/A

$$$$

Generated by Molecular Materials Informatics

 30 33  0  0  0  0  0  0  0  0999 V2000
    1.3856    2.4000    0.0000 Cl  0  0  0  0  0  0  0  0  0  0  0  0
   -1.3856    4.0000    0.0000 Cl  0  0  0  0  0  0  0  0  0  0  0  0
   11.0851   -3.2000    0.0000 O   0  0  0  0  0  0  0  0  0  0  0  0
   19.3990   -3.2000    0.0000 O   0  0  0  0  0  0  0  0  0  0  0  0
    4.1569   -2.4000    0.0000 N   0  0  0  0  0  0  0  0  0  0  0  0
    1.3856   -0.8000    0.0000 N   0  0  0  0  0  0  0  0  0  0  0  0
   16.6277   -3.2000    0.0000 N   0  0  0  0  0  0  0  0  0  0  0  0
    4.1569   -0.8000    0.0000 C   0  0  0  0  0  0  0  0  0  0  0  0
    2.7713   -3.2000    0.0000 C   0  0  0  0  0  0  0  0  0  0  0  0
    2.7713    0.0000    0.0000 C   0  0  0  0  0  0  0  0  0  0  0  0
    1.3856   -2.4000    0.0000 C   0  0  0  0  0  0  0  0  0  0  0  0
    5.5426   -3.2000    0.0000 C   0  0  0  0  0  0  0  0  0  0  0  0
    6.9282   -2.4000    0.0000 C   0  0  0  0  0  0  0  0  0  0  0  0
    0.0000    0.0000    0.0000 C   0  0  0  0  0  0  0  0  0  0  0  0
    8.3138   -3.2000    0.0000 C   0  0  0  0  0  0  0  0  0  0  0  0
    9.6995   -2.4000    0.0000 C   0  0  0  0  0  0  0  0  0  0  0  0
    0.0000    1.6000    0.0000 C   0  0  0  0  0  0  0  0  0  0  0  0
   -1.3856   -0.8000    0.0000 C   0  0  0  0  0  0  0  0  0  0  0  0
   15.2420   -0.8000    0.0000 C   0  0  0  0  0  0  0  0  0  0  0  0
   16.6277    0.0000    0.0000 C   0  0  0  0  0  0  0  0  0  0  0  0
   15.2420   -2.4000    0.0000 C   0  0  0  0  0  0  0  0  0  0  0  0
   12.4708   -2.4000    0.0000 C   0  0  0  0  0  0  0  0  0  0  0  0
   -1.3856    2.4000    0.0000 C   0  0  0  0  0  0  0  0  0  0  0  0
   -2.7713    0.0000    0.0000 C   0  0  0  0  0  0  0  0  0  0  0  0
   18.0133   -0.8000    0.0000 C   0  0  0  0  0  0  0  0  0  0  0  0
   13.8564   -3.2000    0.0000 C   0  0  0  0  0  0  0  0  0  0  0  0
   -2.7713    1.6000    0.0000 C   0  0  0  0  0  0  0  0  0  0  0  0
   13.8564    0.0000    0.0000 C   0  0  0  0  0  0  0  0  0  0  0  0
   12.4708   -0.8000    0.0000 C   0  0  0  0  0  0  0  0  0  0  0  0
   18.0133   -2.4000    0.0000 C   0  0  0  0  0  0  0  0  0  0  0  0
  1 17  1  0  0  0  0
  2 23  1  0  0  0  0
  3 16  1  0  0  0  0
  3 22  1  0  0  0  0
  4 30  2  0  0  0  0
  5  8  1  0  0  0  0
  5  9  1  0  0  0  0
  5 12  1  0  0  0  0
  6 10  1  0  0  0  0
  6 11  1  0  0  0  0
  6 14  1  0  0  0  0
  7 21  1  0  0  0  0
  7 30  1  0  0  0  0
  8 10  1  0  0  0  0
  9 11  1  0  0  0  0
 12 13  1  0  0  0  0
 13 15  1  0  0  0  0
 14 17  2  0  0  0  0
 14 18  1  0  0  0  0
 15 16  1  0  0  0  0
 17 23  1  0  0  0  0
 18 24  2  0  0  0  0
 19 20  1  0  0  0  0
 19 21  2  0  0  0  0
 19 28  1  0  0  0  0
 20 25  1  0  0  0  0
 21 26  1  0  0  0  0
 22 26  2  0  0  0  0
 22 29  1  0  0  0  0
 23 27  2  0  0  0  0
 24 27  1  0  0  0  0
 25 30  1  0  0  0  0
 28 29  2  0  0  0  0
M  END
> <Acceptable>
false

> <IC50>
0.631

$$$$

Generated by Molecular Materials Informatics

 19 21  0  0  0  0  0  0  0  0999 V2000
   -4.1569   -0.8000    0.0000 O   0  0  0  0  0  0  0  0  0  0  0  0
   -2.7713    0.0000    0.0000 C   0  0  0  0  0  0  0  0  0  0  0  0
   -2.7713    1.6000    0.0000 C   0  0  0  0  0  0  0  0  0  0  0  0
   -1.3856    2.4000    0.0000 C   0  0  0  0  0  0  0  0  0  0  0  0
    0.0000    1.6000    0.0000 C   0  0  0  0  0  0  0  0  0  0  0  0
    0.0000    3.2000    0.0000 C   0  0  0  0  0  0  0  0  0  0  0  0
    1.3856    2.4000    0.0000 C   0  0  0  0  0  0  0  0  0  0  0  0
    2.7713    1.6000    0.0000 C   0  0  0  0  0  0  0  0  0  0  0  0
    4.1569    2.4000    0.0000 O   0  0  0  0  0  0  0  0  0  0  0  0
    2.7713    0.0000    0.0000 C   0  0  0  0  0  0  0  0  0  0  0  0
    1.3856   -0.8000    0.0000 C   0  0  0  0  0  0  0  0  0  0  0  0
    1.7183   -2.3650    0.0000 O   0  0  0  0  0  0  0  0  0  0  0  0
    3.3095   -2.5323    0.0000 C   0  0  0  0  0  0  0  0  0  0  0  0
    4.1095   -3.9179    0.0000 O   0  0  0  0  0  0  0  0  0  0  0  0
    3.9603   -1.0706    0.0000 C   0  0  0  0  0  0  0  0  0  0  0  0
    5.5254   -0.7379    0.0000 C   0  0  0  0  0  0  0  0  0  0  0  0
    0.0000    0.0000    0.0000 C   0  0  0  0  0  0  0  0  0  0  0  0
   -1.3856   -0.8000    0.0000 C   0  0  0  0  0  0  0  0  0  0  0  0
   -1.3856   -2.4000    0.0000 C   0  0  0  0  0  0  0  0  0  0  0  0
  1  2  2  0  0  0  0
  2  3  1  0  0  0  0
  2 18  1  0  0  0  0
  3  4  2  0  0  0  0
  4  5  1  0  0  0  0
  5  6  1  6  0  0  0
  5  7  1  0  0  0  0
  5 17  1  0  0  0  0
  7  8  1  0  0  0  0
  8  9  1  6  0  0  0
  8 10  1  0  0  0  0
 10 11  1  0  0  0  0
 10 15  1  0  0  0  0
 11 12  1  6  0  0  0
 11 17  1  0  0  0  0
 12 13  1  0  0  0  0
 13 14  2  0  0  0  0
 13 15  1  0  0  0  0
 15 16  1  1  0  0  0
 17 18  2  0  0  0  0
 18 19  1  0  0  0  0
M  END
> <Acceptable>
true

> <IC50>
110

$$$$

Generated by Molecular Materials Informatics

 19 19  0  0  0  0  0  0  0  0999 V2000
    2.3650    1.0530    0.0000 S   0  0  0  0  0  0  0  0  0  0  0  0
   -3.0434    0.9889    0.0000 O   0  0  0  0  0  0  0  0  0  0  0  0
    3.8070   -1.9616    0.0000 O   0  0  0  0  0  0  0  0  0  0  0  0
    1.2754   -3.0888    0.0000 O   0  0  0  0  0  0  0  0  0  0  0  0
   -5.4214   -1.1524    0.0000 N   0  0  0  0  0  0  0  0  0  0  0  0
   -1.1890   -1.0706    0.0000 N   0  0  0  0  0  0  0  0  0  0  0  0
   -3.8998   -1.6468    0.0000 C   0  0  0  0  0  0  0  0  0  0  0  0
   -6.6105   -2.2230    0.0000 C   0  0  0  0  0  0  0  0  0  0  0  0
   -2.7107   -0.5762    0.0000 C   0  0  0  0  0  0  0  0  0  0  0  0
   -8.1322   -1.7285    0.0000 C   0  0  0  0  0  0  0  0  0  0  0  0
   -3.5671   -3.2118    0.0000 C   0  0  0  0  0  0  0  0  0  0  0  0
    0.0000    0.0000    0.0000 C   0  0  0  0  0  0  0  0  0  0  0  0
   -0.1672    1.5912    0.0000 C   0  0  0  0  0  0  0  0  0  0  0  0
    1.5650   -0.3327    0.0000 C   0  0  0  0  0  0  0  0  0  0  0  0
   -9.3212   -2.7992    0.0000 C   0  0  0  0  0  0  0  0  0  0  0  0
    1.2944    2.2420    0.0000 C   0  0  0  0  0  0  0  0  0  0  0  0
   -1.5529    2.3912    0.0000 C   0  0  0  0  0  0  0  0  0  0  0  0
    2.2158   -1.7943    0.0000 C   0  0  0  0  0  0  0  0  0  0  0  0
    4.4578   -3.4232    0.0000 C   0  0  0  0  0  0  0  0  0  0  0  0
  1 14  1  0  0  0  0
  1 16  1  0  0  0  0
  2  9  2  0  0  0  0
  3 18  1  0  0  0  0
  3 19  1  0  0  0  0
  4 18  2  0  0  0  0
  5  7  1  0  0  0  0
  5  8  1  0  0  0  0
  6  9  1  0  0  0  0
  6 12  1  0  0  0  0
  7  9  1  0  0  0  0
  7 11  1  6  0  0  0
  8 10  1  0  0  0  0
 10 15  1  0  0  0  0
 12 13  1  0  0  0  0
 12 14  2  0  0  0  0
 13 16  2  0  0  0  0
 13 17  1  0  0  0  0
 14 18  1  0  0  0  0
M  END
> <Acceptable>
true

> <IC50>
224

$$$$

Generated by Molecular Materials Informatics

 34 38  0  0  0  0  0  0  0  0999 V2000
    4.4235    5.8475    0.0000 F   0  0  0  0  0  0  0  0  0  0  0  0
    3.2344    4.7769    0.0000 C   0  0  0  0  0  0  0  0  0  0  0  0
    1.7127    5.2713    0.0000 C   0  0  0  0  0  0  0  0  0  0  0  0
    0.5237    4.2007    0.0000 C   0  0  0  0  0  0  0  0  0  0  0  0
    0.8564    2.6356    0.0000 C   0  0  0  0  0  0  0  0  0  0  0  0
    2.3781    2.1412    0.0000 C   0  0  0  0  0  0  0  0  0  0  0  0
    3.5671    3.2118    0.0000 C   0  0  0  0  0  0  0  0  0  0  0  0
   -0.3327    1.5650    0.0000 C   0  0  0  0  0  0  0  0  0  0  0  0
    0.0000    0.0000    0.0000 N   0  0  0  0  0  0  0  0  0  0  0  0
   -1.0706   -1.1890    0.0000 C   0  0  0  0  0  0  0  0  0  0  0  0
   -2.6706   -1.1890    0.0000 C   0  0  0  0  0  0  0  0  0  0  0  0
   -3.4706   -2.5747    0.0000 C   0  0  0  0  0  0  0  0  0  0  0  0
   -2.6706   -3.9603    0.0000 C   0  0  0  0  0  0  0  0  0  0  0  0
   -1.0706   -3.9603    0.0000 C   0  0  0  0  0  0  0  0  0  0  0  0
   -0.2706   -2.5747    0.0000 C   0  0  0  0  0  0  0  0  0  0  0  0
    1.2944   -2.2420    0.0000 N   0  0  0  0  0  0  0  0  0  0  0  0
    1.4617   -0.6508    0.0000 C   0  0  0  0  0  0  0  0  0  0  0  0
    2.8473    0.1492    0.0000 N   0  0  0  0  0  0  0  0  0  0  0  0
    4.2330   -0.6508    0.0000 C   0  0  0  0  0  0  0  0  0  0  0  0
    4.2330   -2.2508    0.0000 C   0  0  0  0  0  0  0  0  0  0  0  0
    5.6186   -3.0508    0.0000 C   0  0  0  0  0  0  0  0  0  0  0  0
    7.0042   -2.2508    0.0000 N   0  0  0  0  0  0  0  0  0  0  0  0
    7.0042   -0.6508    0.0000 C   0  0  0  0  0  0  0  0  0  0  0  0
    5.6186    0.1492    0.0000 C   0  0  0  0  0  0  0  0  0  0  0  0
    8.3899   -3.0508    0.0000 C   0  0  0  0  0  0  0  0  0  0  0  0
    9.7755   -2.2508    0.0000 C   0  0  0  0  0  0  0  0  0  0  0  0
   11.1612   -3.0508    0.0000 C   0  0  0  0  0  0  0  0  0  0  0  0
   11.1612   -4.6508    0.0000 C   0  0  0  0  0  0  0  0  0  0  0  0
   12.5468   -5.4508    0.0000 C   0  0  0  0  0  0  0  0  0  0  0  0
   13.9324   -4.6508    0.0000 C   0  0  0  0  0  0  0  0  0  0  0  0
   15.3181   -5.4508    0.0000 O   0  0  0  0  0  0  0  0  0  0  0  0
   16.7037   -4.6508    0.0000 C   0  0  0  0  0  0  0  0  0  0  0  0
   13.9324   -3.0508    0.0000 C   0  0  0  0  0  0  0  0  0  0  0  0
   12.5468   -2.2508    0.0000 C   0  0  0  0  0  0  0  0  0  0  0  0
  1  2  1  0  0  0  0
  2  3  1  0  0  0  0
  2  7  2  0  0  0  0
  3  4  2  0  0  0  0
  4  5  1  0  0  0  0
  5  6  2  0  0  0  0
  5  8  1  0  0  0  0
  6  7  1  0  0  0  0
  8  9  1  0  0  0  0
  9 10  1  0  0  0  0
  9 17  1  0  0  0  0
 10 11  1  0  0  0  0
 10 15  2  0  0  0  0
 11 12  2  0  0  0  0
 12 13  1  0  0  0  0
 13 14  2  0  0  0  0
 14 15  1  0  0  0  0
 15 16  1  0  0  0  0
 16 17  2  0  0  0  0
 17 18  1  0  0  0  0
 19 18  1  1  0  0  0
 19 20  1  0  0  0  0
 19 24  1  0  0  0  0
 20 21  1  0  0  0  0
 21 22  1  0  0  0  0
 22 23  1  0  0  0  0
 22 25  1  6  0  0  0
 23 24  1  0  0  0  0
 25 26  1  0  0  0  0
 26 27  1  0  0  0  0
 27 28  1  0  0  0  0
 27 34  2  0  0  0  0
 28 29  2  0  0  0  0
 29 30  1  0  0  0  0
 30 31  1  0  0  0  0
 30 33  2  0  0  0  0
 31 32  1  0  0  0  0
 33 34  1  0  0  0  0
M  END
> <Acceptable>
false

> <IC50>
0.0115

$$$$

Generated by Molecular Materials Informatics

 19 19  0  0  0  0  0  0  0  0999 V2000
   -2.7713   -1.6000    0.0000 O   0  0  0  0  0  0  0  0  0  0  0  0
   -2.7713    0.0000    0.0000 C   0  0  0  0  0  0  0  0  0  0  0  0
   -4.1569    0.8000    0.0000 N   0  0  0  0  0  0  0  0  0  0  0  0
   -1.3856    0.8000    0.0000 C   0  0  0  0  0  0  0  0  0  0  0  0
    0.0000    0.0000    0.0000 C   0  0  0  0  0  0  0  0  0  0  0  0
    0.0000   -1.6000    0.0000 C   0  0  0  0  0  0  0  0  0  0  0  0
    1.3856   -2.4000    0.0000 C   0  0  0  0  0  0  0  0  0  0  0  0
    2.7713   -1.6000    0.0000 C   0  0  0  0  0  0  0  0  0  0  0  0
    4.1569   -2.4000    0.0000 O   0  0  0  0  0  0  0  0  0  0  0  0
    5.5426   -1.6000    0.0000 C   0  0  0  0  0  0  0  0  0  0  0  0
    6.9282   -2.4000    0.0000 C   0  0  0  0  0  0  0  0  0  0  0  0
    6.9282   -4.0000    0.0000 O   0  0  0  0  0  0  0  0  0  0  0  0
    8.3138   -1.6000    0.0000 C   0  0  0  0  0  0  0  0  0  0  0  0
    9.6995   -2.4000    0.0000 N   0  0  0  0  0  0  0  0  0  0  0  0
   11.0851   -1.6000    0.0000 C   0  0  0  0  0  0  0  0  0  0  0  0
   11.0851    0.0000    0.0000 C   0  0  0  0  0  0  0  0  0  0  0  0
   12.4708   -2.4000    0.0000 C   0  0  0  0  0  0  0  0  0  0  0  0
    2.7713    0.0000    0.0000 C   0  0  0  0  0  0  0  0  0  0  0  0
    1.3856    0.8000    0.0000 C   0  0  0  0  0  0  0  0  0  0  0  0
  1  2  2  0  0  0  0
  2  3  1  0  0  0  0
  2  4  1  0  0  0  0
  4  5  1  0  0  0  0
  5  6  1  0  0  0  0
  5 19  2  0  0  0  0
  6  7  2  0  0  0  0
  7  8  1  0  0  0  0
  8  9  1  0  0  0  0
  8 18  2  0  0  0  0
  9 10  1  0  0  0  0
 10 11  1  0  0  0  0
 11 12  1  1  0  0  0
 11 13  1  0  0  0  0
 13 14  1  0  0  0  0
 14 15  1  0  0  0  0
 15 16  1  0  0  0  0
 15 17  1  0  0  0  0
 18 19  1  0  0  0  0
M  END
> <Acceptable>
true

> <IC50>
1000

$$$$

Generated by Molecular Materials Informatics

 37 40  0  0  0  0  0  0  0  0999 V2000
   18.0133    2.4000    0.0000 C   0  0  0  0  0  0  0  0  0  0  0  0
   18.0133    0.8000    0.0000 C   0  0  0  0  0  0  0  0  0  0  0  0
   19.3990    0.0000    0.0000 N   0  0  0  0  0  0  0  0  0  0  0  0
   20.7846    0.8000    0.0000 C   0  0  0  0  0  0  0  0  0  0  0  0
   20.7846    2.4000    0.0000 C   0  0  0  0  0  0  0  0  0  0  0  0
   19.3990    3.2000    0.0000 C   0  0  0  0  0  0  0  0  0  0  0  0
   -2.7713    0.0000    0.0000 C   0  0  0  0  0  0  0  0  0  0  0  0
   -2.7713   -1.6000    0.0000 C   0  0  0  0  0  0  0  0  0  0  0  0
   -1.3856   -2.4000    0.0000 C   0  0  0  0  0  0  0  0  0  0  0  0
    0.0000   -1.6000    0.0000 C   0  0  0  0  0  0  0  0  0  0  0  0
    0.0000    0.0000    0.0000 C   0  0  0  0  0  0  0  0  0  0  0  0
   -1.3856    0.8000    0.0000 C   0  0  0  0  0  0  0  0  0  0  0  0
    1.3856    0.8000    0.0000 C   0  0  0  0  0  0  0  0  0  0  0  0
    2.7713    0.0000    0.0000 N   0  0  0  0  0  0  0  0  0  0  0  0
    1.3856    2.4000    0.0000 O   0  0  0  0  0  0  0  0  0  0  0  0
    4.1569    0.8000    0.0000 C   0  0  0  0  0  0  0  0  0  0  0  0
    5.5426    0.0000    0.0000 C   0  0  0  0  0  0  0  0  0  0  0  0
    6.9282    0.8000    0.0000 C   0  0  0  0  0  0  0  0  0  0  0  0
    6.9282    2.4000    0.0000 N   0  0  0  0  0  0  0  0  0  0  0  0
    5.5426    3.2000    0.0000 C   0  0  0  0  0  0  0  0  0  0  0  0
    4.1569    2.4000    0.0000 C   0  0  0  0  0  0  0  0  0  0  0  0
    5.5426   -1.6000    0.0000 O   0  0  0  0  0  0  0  0  0  0  0  0
    6.9282   -2.4000    0.0000 C   0  0  0  0  0  0  0  0  0  0  0  0
    1.3856   -2.4000    0.0000 O   0  0  0  0  0  0  0  0  0  0  0  0
    1.3856   -4.0000    0.0000 C   0  0  0  0  0  0  0  0  0  0  0  0
   -4.1569    0.8000    0.0000 Cl  0  0  0  0  0  0  0  0  0  0  0  0
   -4.1569   -2.4000    0.0000 N   0  0  0  0  0  0  0  0  0  0  0  0
    8.3138    3.2000    0.0000 C   0  0  0  0  0  0  0  0  0  0  0  0
    9.6995    2.4000    0.0000 C   0  0  0  0  0  0  0  0  0  0  0  0
   11.0851    3.2000    0.0000 C   0  0  0  0  0  0  0  0  0  0  0  0
   12.4708    2.4000    0.0000 C   0  0  0  0  0  0  0  0  0  0  0  0
   13.8564    3.2000    0.0000 C   0  0  0  0  0  0  0  0  0  0  0  0
   15.2420    2.4000    0.0000 C   0  0  0  0  0  0  0  0  0  0  0  0
   16.6277    3.2000    0.0000 O   0  0  0  0  0  0  0  0  0  0  0  0
   15.2420    0.8000    0.0000 O   0  0  0  0  0  0  0  0  0  0  0  0
   20.0623    1.0000    0.0000 C   0  0  0  0  0  0  0  0  0  0  0  0
   20.0623    2.2000    0.0000 C   0  0  0  0  0  0  0  0  0  0  0  0
  1  2  1  0  0  0  0
  1  6  1  0  0  0  0
  1 34  1  6  0  0  0
  2  3  1  0  0  0  0
  3  4  1  1  0  0  0
  3 36  1  0  0  0  0
  4  5  1  0  0  0  0
  5  6  1  0  0  0  0
  6 37  1  6  0  0  0
  7  8  1  0  0  0  0
  7 12  2  0  0  0  0
  7 26  1  0  0  0  0
  8  9  2  0  0  0  0
  8 27  1  0  0  0  0
  9 10  1  0  0  0  0
 10 11  2  0  0  0  0
 10 24  1  0  0  0  0
 11 12  1  0  0  0  0
 11 13  1  0  0  0  0
 13 14  1  0  0  0  0
 13 15  2  0  0  0  0
 16 14  1  6  0  0  0
 16 17  1  0  0  0  0
 16 21  1  0  0  0  0
 17 18  1  0  0  0  0
 17 22  1  6  0  0  0
 18 19  1  0  0  0  0
 19 20  1  0  0  0  0
 19 28  1  1  0  0  0
 20 21  1  0  0  0  0
 22 23  1  0  0  0  0
 24 25  1  0  0  0  0
 28 29  1  0  0  0  0
 29 30  1  0  0  0  0
 30 31  1  0  0  0  0
 31 32  1  0  0  0  0
 32 33  1  0  0  0  0
 33 34  1  0  0  0  0
 33 35  2  0  0  0  0
 36 37  1  0  0  0  0
M  END
> <Acceptable>
false

> <IC50>
24.5

$$$$

Generated by Molecular Materials Informatics

 19 20  0  0  0  0  0  0  0  0999 V2000
    1.3856    0.8000    0.0000 O   0  0  0  0  0  0  0  0  0  0  0  0
   -1.3856   -4.0000    0.0000 N   0  0  0  0  0  0  0  0  0  0  0  0
    0.0000    0.0000    0.0000 C   0  0  0  0  0  0  0  0  0  0  0  0
    0.0000   -1.6000    0.0000 C   0  0  0  0  0  0  0  0  0  0  0  0
   -1.3856    0.8000    0.0000 C   0  0  0  0  0  0  0  0  0  0  0  0
   -1.3856   -2.4000    0.0000 C   0  0  0  0  0  0  0  0  0  0  0  0
    2.7713    0.0000    0.0000 C   0  0  0  0  0  0  0  0  0  0  0  0
   -2.7713    0.0000    0.0000 C   0  0  0  0  0  0  0  0  0  0  0  0
   -1.3856    2.4000    0.0000 C   0  0  0  0  0  0  0  0  0  0  0  0
    4.1569    0.8000    0.0000 C   0  0  0  0  0  0  0  0  0  0  0  0
   -4.1569    0.8000    0.0000 C   0  0  0  0  0  0  0  0  0  0  0  0
   -2.7713    3.2000    0.0000 C   0  0  0  0  0  0  0  0  0  0  0  0
    2.7713   -1.6000    0.0000 C   0  0  0  0  0  0  0  0  0  0  0  0
   -4.1569    2.4000    0.0000 C   0  0  0  0  0  0  0  0  0  0  0  0
   -2.7713   -4.8000    0.0000 C   0  0  0  0  0  0  0  0  0  0  0  0
    5.5426    0.0000    0.0000 C   0  0  0  0  0  0  0  0  0  0  0  0
    4.1569    2.4000    0.0000 C   0  0  0  0  0  0  0  0  0  0  0  0
    4.1569   -2.4000    0.0000 C   0  0  0  0  0  0  0  0  0  0  0  0
    5.5426   -1.6000    0.0000 C   0  0  0  0  0  0  0  0  0  0  0  0
  1  3  1  0  0  0  0
  1  7  1  0  0  0  0
  2  6  1  0  0  0  0
  2 15  1  0  0  0  0
  3  4  1  6  0  0  0
  3  5  1  0  0  0  0
  4  6  1  0  0  0  0
  5  8  2  0  0  0  0
  5  9  1  0  0  0  0
  7 10  2  0  0  0  0
  7 13  1  0  0  0  0
  8 11  1  0  0  0  0
  9 12  2  0  0  0  0
 10 16  1  0  0  0  0
 10 17  1  0  0  0  0
 11 14  2  0  0  0  0
 12 14  1  0  0  0  0
 13 18  2  0  0  0  0
 16 19  2  0  0  0  0
 18 19  1  0  0  0  0
M  END
> <Acceptable>
false

> <IC50>
6.26

$$$$

Generated by Molecular Materials Informatics

 41 44  0  0  0  0  0  0  0  0999 V2000
   -4.1682    6.1794    0.0000 F   0  0  0  0  0  0  0  0  0  0  0  0
   -3.5174    4.7177    0.0000 C   0  0  0  0  0  0  0  0  0  0  0  0
   -4.4578    3.4233    0.0000 C   0  0  0  0  0  0  0  0  0  0  0  0
   -3.8070    1.9616    0.0000 C   0  0  0  0  0  0  0  0  0  0  0  0
   -2.2158    1.7943    0.0000 C   0  0  0  0  0  0  0  0  0  0  0  0
   -1.2754    3.0888    0.0000 C   0  0  0  0  0  0  0  0  0  0  0  0
   -1.9261    4.5504    0.0000 C   0  0  0  0  0  0  0  0  0  0  0  0
   -1.5650    0.3327    0.0000 C   0  0  0  0  0  0  0  0  0  0  0  0
   -2.3650   -1.0530    0.0000 N   0  0  0  0  0  0  0  0  0  0  0  0
   -3.9563   -1.2202    0.0000 C   0  0  0  0  0  0  0  0  0  0  0  0
   -4.6071   -2.6819    0.0000 C   0  0  0  0  0  0  0  0  0  0  0  0
   -6.1983   -2.8491    0.0000 C   0  0  0  0  0  0  0  0  0  0  0  0
   -7.1387   -1.5547    0.0000 O   0  0  0  0  0  0  0  0  0  0  0  0
   -6.8491   -4.3108    0.0000 C   0  0  0  0  0  0  0  0  0  0  0  0
   -8.4403   -4.4781    0.0000 C   0  0  0  0  0  0  0  0  0  0  0  0
   -9.3808   -3.1836    0.0000 O   0  0  0  0  0  0  0  0  0  0  0  0
   -9.0911   -5.9397    0.0000 C   0  0  0  0  0  0  0  0  0  0  0  0
  -10.6823   -6.1070    0.0000 C   0  0  0  0  0  0  0  0  0  0  0  0
  -11.6228   -4.8126    0.0000 O   0  0  0  0  0  0  0  0  0  0  0  0
  -11.3331   -7.5687    0.0000 O   0  0  0  0  0  0  0  0  0  0  0  0
   -1.2944   -2.2420    0.0000 C   0  0  0  0  0  0  0  0  0  0  0  0
    0.1672   -1.5912    0.0000 C   0  0  0  0  0  0  0  0  0  0  0  0
    0.0000    0.0000    0.0000 C   0  0  0  0  0  0  0  0  0  0  0  0
    1.1890    1.0706    0.0000 C   0  0  0  0  0  0  0  0  0  0  0  0
    2.7107    0.5762    0.0000 C   0  0  0  0  0  0  0  0  0  0  0  0
    3.8998    1.6468    0.0000 C   0  0  0  0  0  0  0  0  0  0  0  0
    3.5671    3.2118    0.0000 C   0  0  0  0  0  0  0  0  0  0  0  0
    2.0454    3.7063    0.0000 C   0  0  0  0  0  0  0  0  0  0  0  0
    0.8564    2.6356    0.0000 C   0  0  0  0  0  0  0  0  0  0  0  0
    1.5529   -2.3912    0.0000 C   0  0  0  0  0  0  0  0  0  0  0  0
    2.9385   -1.5912    0.0000 O   0  0  0  0  0  0  0  0  0  0  0  0
    1.5529   -3.9912    0.0000 N   0  0  0  0  0  0  0  0  0  0  0  0
    2.9385   -4.7912    0.0000 C   0  0  0  0  0  0  0  0  0  0  0  0
    2.9385   -6.3912    0.0000 C   0  0  0  0  0  0  0  0  0  0  0  0
    4.3242   -7.1912    0.0000 C   0  0  0  0  0  0  0  0  0  0  0  0
    5.7098   -6.3912    0.0000 C   0  0  0  0  0  0  0  0  0  0  0  0
    5.7098   -4.7912    0.0000 C   0  0  0  0  0  0  0  0  0  0  0  0
    4.3242   -3.9912    0.0000 C   0  0  0  0  0  0  0  0  0  0  0  0
   -1.6271   -3.8070    0.0000 C   0  0  0  0  0  0  0  0  0  0  0  0
   -0.4381   -4.8777    0.0000 C   0  0  0  0  0  0  0  0  0  0  0  0
   -3.1488   -4.3015    0.0000 C   0  0  0  0  0  0  0  0  0  0  0  0
  1  2  1  0  0  0  0
  2  3  1  0  0  0  0
  2  7  2  0  0  0  0
  3  4  2  0  0  0  0
  4  5  1  0  0  0  0
  5  6  2  0  0  0  0
  5  8  1  0  0  0  0
  6  7  1  0  0  0  0
  8  9  1  0  0  0  0
  8 23  2  0  0  0  0
  9 10  1  0  0  0  0
  9 21  1  0  0  0  0
 10 11  1  0  0  0  0
 11 12  1  0  0  0  0
 12 13  1  6  0  0  0
 12 14  1  0  0  0  0
 14 15  1  0  0  0  0
 15 16  1  6  0  0  0
 15 17  1  0  0  0  0
 17 18  1  0  0  0  0
 18 19  2  0  0  0  0
 18 20  1  0  0  0  0
 21 22  2  0  0  0  0
 21 39  1  0  0  0  0
 22 23  1  0  0  0  0
 22 30  1  0  0  0  0
 23 24  1  0  0  0  0
 24 25  1  0  0  0  0
 24 29  2  0  0  0  0
 25 26  2  0  0  0  0
 26 27  1  0  0  0  0
 27 28  2  0  0  0  0
 28 29  1  0  0  0  0
 30 31  2  0  0  0  0
 30 32  1  0  0  0  0
 32 33  1  0  0  0  0
 33 34  1  0  0  0  0
 33 38  2  0  0  0  0
 34 35  2  0  0  0  0
 35 36  1  0  0  0  0
 36 37  2  0  0  0  0
 37 38  1  0  0  0  0
 39 40  1  0  0  0  0
 39 41  1  0  0  0  0
M  END
> <Acceptable>
true

> <IC50>
N/A

$$$$

Generated by Molecular Materials Informatics

 25 28  0  0  0  0  0  0  0  0999 V2000
  -11.2000    0.0000    0.0000 Cl  0  0  0  0  0  0  0  0  0  0  0  0
   -9.6000    0.0000    0.0000 C   0  0  0  0  0  0  0  0  0  0  0  0
   -8.8000   -1.3856    0.0000 C   0  0  0  0  0  0  0  0  0  0  0  0
   -7.2000   -1.3856    0.0000 C   0  0  0  0  0  0  0  0  0  0  0  0
   -6.4000    0.0000    0.0000 C   0  0  0  0  0  0  0  0  0  0  0  0
   -7.2000    1.3856    0.0000 C   0  0  0  0  0  0  0  0  0  0  0  0
   -8.8000    1.3856    0.0000 C   0  0  0  0  0  0  0  0  0  0  0  0
   -4.8000    0.0000    0.0000 C   0  0  0  0  0  0  0  0  0  0  0  0
   -4.0000   -1.3856    0.0000 C   0  0  0  0  0  0  0  0  0  0  0  0
   -2.4000   -1.3856    0.0000 C   0  0  0  0  0  0  0  0  0  0  0  0
   -1.6000    0.0000    0.0000 C   0  0  0  0  0  0  0  0  0  0  0  0
   -2.4000    1.3856    0.0000 C   0  0  0  0  0  0  0  0  0  0  0  0
   -4.0000    1.3856    0.0000 C   0  0  0  0  0  0  0  0  0  0  0  0
    0.0000    0.0000    0.0000 C   0  0  0  0  0  0  0  0  0  0  0  0
    0.8000   -1.3856    0.0000 C   0  0  0  0  0  0  0  0  0  0  0  0
    2.4000   -1.3856    0.0000 C   0  0  0  0  0  0  0  0  0  0  0  0
    3.2000   -2.7713    0.0000 O   0  0  0  0  0  0  0  0  0  0  0  0
    3.2000    0.0000    0.0000 C   0  0  0  0  0  0  0  0  0  0  0  0
    4.8000    0.0000    0.0000 C   0  0  0  0  0  0  0  0  0  0  0  0
    5.6000    1.3856    0.0000 C   0  0  0  0  0  0  0  0  0  0  0  0
    4.8000    2.7713    0.0000 C   0  0  0  0  0  0  0  0  0  0  0  0
    3.2000    2.7713    0.0000 C   0  0  0  0  0  0  0  0  0  0  0  0
    2.4000    1.3856    0.0000 C   0  0  0  0  0  0  0  0  0  0  0  0
    0.8000    1.3856    0.0000 C   0  0  0  0  0  0  0  0  0  0  0  0
    0.0000    2.7713    0.0000 O   0  0  0  0  0  0  0  0  0  0  0  0
  1  2  1  0  0  0  0
  2  3  1  0  0  0  0
  2  7  2  0  0  0  0
  3  4  2  0  0  0  0
  4  5  1  0  0  0  0
  5  6  2  0  0  0  0
  8  5  1  1  0  0  0
  6  7  1  0  0  0  0
  8  9  1  0  0  0  0
  8 13  1  0  0  0  0
  9 10  1  0  0  0  0
 10 11  1  0  0  0  0
 11 12  1  0  0  0  0
 11 14  1  6  0  0  0
 12 13  1  0  0  0  0
 14 15  2  0  0  0  0
 14 24  1  0  0  0  0
 15 16  1  0  0  0  0
 16 17  2  0  0  0  0
 16 18  1  0  0  0  0
 18 19  1  0  0  0  0
 18 23  2  0  0  0  0
 19 20  2  0  0  0  0
 20 21  1  0  0  0  0
 21 22  2  0  0  0  0
 22 23  1  0  0  0  0
 23 24  1  0  0  0  0
 24 25  2  0  0  0  0
M  END
> <Acceptable>
true

> <IC50>
N/A

$$$$

Generated by Molecular Materials Informatics

 21 23  0  0  0  0  0  0  0  0999 V2000
    5.3425    1.2851    0.0000 O   0  0  0  0  0  0  0  0  0  0  0  0
    5.3409   -0.3149    0.0000 C   0  0  0  0  0  0  0  0  0  0  0  0
    3.9545   -1.1135    0.0000 O   0  0  0  0  0  0  0  0  0  0  0  0
    2.5697   -0.3122    0.0000 C   0  0  0  0  0  0  0  0  0  0  0  0
    1.5449    0.9267    0.0000 C   0  0  0  0  0  0  0  0  0  0  0  0
    0.0000    0.0000    0.0000 C   0  0  0  0  0  0  0  0  0  0  0  0
   -1.3681    0.1952    0.0000 N   0  0  0  0  0  0  0  0  0  0  0  0
   -2.7650    0.9755    0.0000 C   0  0  0  0  0  0  0  0  0  0  0  0
   -0.3450   -1.0349    0.0000 C   0  0  0  0  0  0  0  0  0  0  0  0
    1.2870   -0.0927    0.0000 C   0  0  0  0  0  0  0  0  0  0  0  0
   -0.5275   -2.7354    0.0000 C   0  0  0  0  0  0  0  0  0  0  0  0
    0.1488   -1.5009    0.0000 C   0  0  0  0  0  0  0  0  0  0  0  0
    6.7258   -1.1163    0.0000 C   0  0  0  0  0  0  0  0  0  0  0  0
    6.7242   -2.7163    0.0000 C   0  0  0  0  0  0  0  0  0  0  0  0
    8.1091   -3.5176    0.0000 O   0  0  0  0  0  0  0  0  0  0  0  0
    8.1122   -0.3176    0.0000 C   0  0  0  0  0  0  0  0  0  0  0  0
    8.1138    1.2824    0.0000 C   0  0  0  0  0  0  0  0  0  0  0  0
    9.5002    2.0810    0.0000 C   0  0  0  0  0  0  0  0  0  0  0  0
   10.8851    1.2797    0.0000 C   0  0  0  0  0  0  0  0  0  0  0  0
   10.8835   -0.3203    0.0000 C   0  0  0  0  0  0  0  0  0  0  0  0
    9.4971   -1.1190    0.0000 C   0  0  0  0  0  0  0  0  0  0  0  0
  1  2  2  0  0  0  0
  2  3  1  0  0  0  0
  2 13  1  0  0  0  0
  4  3  1  1  0  0  0
  4  5  1  0  0  0  0
  4 10  1  0  0  0  0
  5  6  1  0  0  0  0
  6  7  1  0  0  0  0
  6 12  1  6  0  0  0
  7  8  1  6  0  0  0
  7  9  1  0  0  0  0
  9 10  1  0  0  0  0
  9 11  1  1  0  0  0
 11 12  1  0  0  0  0
 13 14  1  0  0  0  0
 13 16  1  6  0  0  0
 14 15  1  0  0  0  0
 16 17  1  0  0  0  0
 16 21  2  0  0  0  0
 17 18  2  0  0  0  0
 18 19  1  0  0  0  0
 19 20  2  0  0  0  0
 20 21  1  0  0  0  0
M  END
> <Acceptable>
false

> <IC50>
0.558

$$$$

Generated by Molecular Materials Informatics

 36 39  0  0  0  0  0  0  0  0999 V2000
    0.0000    0.0000    0.0000 C   0  0  0  0  0  0  0  0  0  0  0  0
    0.0000    1.6000    0.0000 C   0  0  0  0  0  0  0  0  0  0  0  0
   -1.3856   -0.8000    0.0000 C   0  0  0  0  0  0  0  0  0  0  0  0
    1.3856   -0.8000    0.0000 C   0  0  0  0  0  0  0  0  0  0  0  0
    1.3856    2.4000    0.0000 C   0  0  0  0  0  0  0  0  0  0  0  0
   -1.3856    2.4000    0.0000 C   0  0  0  0  0  0  0  0  0  0  0  0
   -2.7713    0.0000    0.0000 C   0  0  0  0  0  0  0  0  0  0  0  0
   -1.3856   -2.4000    0.0000 C   0  0  0  0  0  0  0  0  0  0  0  0
    1.3856   -2.4000    0.0000 C   0  0  0  0  0  0  0  0  0  0  0  0
    2.7713    1.6000    0.0000 C   0  0  0  0  0  0  0  0  0  0  0  0
    1.3856    4.0000    0.0000 C   0  0  0  0  0  0  0  0  0  0  0  0
   -1.3856    4.0000    0.0000 C   0  0  0  0  0  0  0  0  0  0  0  0
   -4.1569   -0.8000    0.0000 N   0  0  0  0  0  0  0  0  0  0  0  0
   -2.7713    1.6000    0.0000 O   0  0  0  0  0  0  0  0  0  0  0  0
    0.0000   -3.2000    0.0000 C   0  0  0  0  0  0  0  0  0  0  0  0
    4.1569    2.4000    0.0000 N   0  0  0  0  0  0  0  0  0  0  0  0
    0.0000    4.8000    0.0000 C   0  0  0  0  0  0  0  0  0  0  0  0
   -5.5426    0.0000    0.0000 C   0  0  0  0  0  0  0  0  0  0  0  0
    5.5426    1.6000    0.0000 C   0  0  0  0  0  0  0  0  0  0  0  0
   -6.9282   -0.8000    0.0000 C   0  0  0  0  0  0  0  0  0  0  0  0
    6.9282    2.4000    0.0000 C   0  0  0  0  0  0  0  0  0  0  0  0
    5.5426    0.0000    0.0000 O   0  0  0  0  0  0  0  0  0  0  0  0
   -8.3138    0.0000    0.0000 C   0  0  0  0  0  0  0  0  0  0  0  0
    8.3138    1.6000    0.0000 C   0  0  0  0  0  0  0  0  0  0  0  0
   -8.3138    1.6000    0.0000 C   0  0  0  0  0  0  0  0  0  0  0  0
   -9.6995   -0.8000    0.0000 C   0  0  0  0  0  0  0  0  0  0  0  0
    8.3138    0.0000    0.0000 C   0  0  0  0  0  0  0  0  0  0  0  0
    9.6995    2.4000    0.0000 C   0  0  0  0  0  0  0  0  0  0  0  0
   -9.6995    2.4000    0.0000 C   0  0  0  0  0  0  0  0  0  0  0  0
  -11.0851    0.0000    0.0000 N   0  0  0  0  0  0  0  0  0  0  0  0
    9.6995   -0.8000    0.0000 C   0  0  0  0  0  0  0  0  0  0  0  0
   11.0851    1.6000    0.0000 C   0  0  0  0  0  0  0  0  0  0  0  0
  -11.0851    1.6000    0.0000 C   0  0  0  0  0  0  0  0  0  0  0  0
   11.0851    0.0000    0.0000 C   0  0  0  0  0  0  0  0  0  0  0  0
   12.4708   -0.8000    0.0000 O   0  0  0  0  0  0  0  0  0  0  0  0
   13.8564    0.0000    0.0000 C   0  0  0  0  0  0  0  0  0  0  0  0
  1  2  1  0  0  0  0
  1  3  2  0  0  0  0
  1  4  1  0  0  0  0
  2  5  2  0  0  0  0
  2  6  1  0  0  0  0
  3  7  1  0  0  0  0
  3  8  1  0  0  0  0
  4  9  2  0  0  0  0
  5 10  1  0  0  0  0
  5 11  1  0  0  0  0
  6 12  2  0  0  0  0
  7 13  1  0  0  0  0
  7 14  2  0  0  0  0
  8 15  2  0  0  0  0
  9 15  1  0  0  0  0
 10 16  1  0  0  0  0
 11 17  2  0  0  0  0
 12 17  1  0  0  0  0
 13 18  1  0  0  0  0
 16 19  1  0  0  0  0
 18 20  1  0  0  0  0
 19 21  1  0  0  0  0
 19 22  2  0  0  0  0
 20 23  1  0  0  0  0
 21 24  1  0  0  0  0
 23 25  2  0  0  0  0
 23 26  1  0  0  0  0
 24 27  2  0  0  0  0
 24 28  1  0  0  0  0
 25 29  1  0  0  0  0
 26 30  2  0  0  0  0
 27 31  1  0  0  0  0
 28 32  2  0  0  0  0
 29 33  2  0  0  0  0
 30 33  1  0  0  0  0
 31 34  2  0  0  0  0
 32 34  1  0  0  0  0
 34 35  1  0  0  0  0
 35 36  1  0  0  0  0
M  END
> <Acceptable>
false

> <IC50>
10

$$$$

Generated by Molecular Materials Informatics

 36 38  0  0  0  0  0  0  0  0999 V2000
  -11.0851    4.8000    0.0000 O   0  0  0  0  0  0  0  0  0  0  0  0
  -11.0851    3.2000    0.0000 N   0  3  0  0  0  0  0  0  0  0  0  0
  -12.4708    2.4000    0.0000 O   0  5  0  0  0  0  0  0  0  0  0  0
   -9.6995    2.4000    0.0000 C   0  0  0  0  0  0  0  0  0  0  0  0
   -8.3138    3.2000    0.0000 C   0  0  0  0  0  0  0  0  0  0  0  0
   -6.9282    2.4000    0.0000 C   0  0  0  0  0  0  0  0  0  0  0  0
   -6.9282    0.8000    0.0000 C   0  0  0  0  0  0  0  0  0  0  0  0
   -8.3138    0.0000    0.0000 C   0  0  0  0  0  0  0  0  0  0  0  0
   -9.6995    0.8000    0.0000 C   0  0  0  0  0  0  0  0  0  0  0  0
   -5.5426    0.0000    0.0000 C   0  0  0  0  0  0  0  0  0  0  0  0
   -5.5426   -1.6000    0.0000 O   0  0  0  0  0  0  0  0  0  0  0  0
   -4.1569    0.8000    0.0000 N   0  0  0  0  0  0  0  0  0  0  0  0
   -4.1569    2.4000    0.0000 C   0  0  0  0  0  0  0  0  0  0  0  0
   -2.7713    3.2000    0.0000 C   0  0  0  0  0  0  0  0  0  0  0  0
   -2.7713    4.8000    0.0000 C   0  0  0  0  0  0  0  0  0  0  0  0
   -1.3856    5.6000    0.0000 N   0  0  0  0  0  0  0  0  0  0  0  0
    0.0000    4.8000    0.0000 C   0  0  0  0  0  0  0  0  0  0  0  0
    1.3856    5.6000    0.0000 C   0  0  0  0  0  0  0  0  0  0  0  0
   -1.3856    7.2000    0.0000 C   0  0  0  0  0  0  0  0  0  0  0  0
    0.0000    8.0000    0.0000 C   0  0  0  0  0  0  0  0  0  0  0  0
   -2.7713    0.0000    0.0000 C   0  0  0  0  0  0  0  0  0  0  0  0
   -1.3856    0.8000    0.0000 C   0  0  0  0  0  0  0  0  0  0  0  0
   -1.3856    2.4000    0.0000 O   0  0  0  0  0  0  0  0  0  0  0  0
    0.0000    0.0000    0.0000 N   0  0  0  0  0  0  0  0  0  0  0  0
    0.0000   -1.6000    0.0000 C   0  0  0  0  0  0  0  0  0  0  0  0
    1.3856   -2.4000    0.0000 C   0  0  0  0  0  0  0  0  0  0  0  0
    1.3856   -4.0000    0.0000 C   0  0  0  0  0  0  0  0  0  0  0  0
    0.0000   -4.8000    0.0000 C   0  0  0  0  0  0  0  0  0  0  0  0
   -1.3856   -4.0000    0.0000 C   0  0  0  0  0  0  0  0  0  0  0  0
   -1.3856   -2.4000    0.0000 C   0  0  0  0  0  0  0  0  0  0  0  0
    1.3856    0.8000    0.0000 C   0  0  0  0  0  0  0  0  0  0  0  0
    1.3856    2.4000    0.0000 C   0  0  0  0  0  0  0  0  0  0  0  0
    2.7713    3.2000    0.0000 C   0  0  0  0  0  0  0  0  0  0  0  0
    4.1569    2.4000    0.0000 C   0  0  0  0  0  0  0  0  0  0  0  0
    4.1569    0.8000    0.0000 C   0  0  0  0  0  0  0  0  0  0  0  0
    2.7713    0.0000    0.0000 C   0  0  0  0  0  0  0  0  0  0  0  0
  1  2  2  0  0  0  0
  2  3  1  0  0  0  0
  2  4  1  0  0  0  0
  4  5  1  0  0  0  0
  4  9  2  0  0  0  0
  5  6  2  0  0  0  0
  6  7  1  0  0  0  0
  7  8  2  0  0  0  0
  7 10  1  0  0  0  0
  8  9  1  0  0  0  0
 10 11  2  0  0  0  0
 10 12  1  0  0  0  0
 12 13  1  0  0  0  0
 12 21  1  0  0  0  0
 13 14  1  0  0  0  0
 14 15  1  0  0  0  0
 15 16  1  0  0  0  0
 16 17  1  0  0  0  0
 16 19  1  0  0  0  0
 17 18  1  0  0  0  0
 19 20  1  0  0  0  0
 21 22  1  0  0  0  0
 22 23  2  0  0  0  0
 22 24  1  0  0  0  0
 24 25  1  0  0  0  0
 24 31  1  0  0  0  0
 25 26  1  0  0  0  0
 25 30  1  0  0  0  0
 26 27  1  0  0  0  0
 27 28  1  0  0  0  0
 28 29  1  0  0  0  0
 29 30  1  0  0  0  0
 31 32  1  0  0  0  0
 31 36  1  0  0  0  0
 32 33  1  0  0  0  0
 33 34  1  0  0  0  0
 34 35  1  0  0  0  0
 35 36  1  0  0  0  0
M  CHG  2   2   1   3  -1
M  END
> <Acceptable>
false

> <IC50>
0.32

$$$$

Generated by Molecular Materials Informatics

 22 25  0  0  0  0  0  0  0  0999 V2000
    1.1472   -2.3821    0.0000 N   0  0  0  0  0  0  0  0  0  0  0  0
    1.1472   -3.9821    0.0000 C   0  0  0  0  0  0  0  0  0  0  0  0
   -0.2385   -4.7821    0.0000 C   0  0  0  0  0  0  0  0  0  0  0  0
   -1.6241   -3.9821    0.0000 C   0  0  0  0  0  0  0  0  0  0  0  0
   -1.6241   -2.3821    0.0000 C   0  0  0  0  0  0  0  0  0  0  0  0
   -3.1135   -1.7976    0.0000 C   0  0  0  0  0  0  0  0  0  0  0  0
   -3.5851   -0.2687    0.0000 C   0  0  0  0  0  0  0  0  0  0  0  0
   -2.6838    1.0533    0.0000 C   0  0  0  0  0  0  0  0  0  0  0  0
   -3.5851    2.3753    0.0000 C   0  0  0  0  0  0  0  0  0  0  0  0
   -2.8909    3.8168    0.0000 C   0  0  0  0  0  0  0  0  0  0  0  0
   -1.2954    3.9364    0.0000 C   0  0  0  0  0  0  0  0  0  0  0  0
   -0.3941    2.6144    0.0000 C   0  0  0  0  0  0  0  0  0  0  0  0
   -1.0883    1.1729    0.0000 C   0  0  0  0  0  0  0  0  0  0  0  0
    0.0000    0.0000    0.0000 C   0  0  0  0  0  0  0  0  0  0  0  0
   -0.2385   -1.5821    0.0000 C   0  0  0  0  0  0  0  0  0  0  0  0
    1.5289    0.4716    0.0000 C   0  0  0  0  0  0  0  0  0  0  0  0
    2.7018   -0.6167    0.0000 C   0  0  0  0  0  0  0  0  0  0  0  0
    4.2307   -0.1451    0.0000 C   0  0  0  0  0  0  0  0  0  0  0  0
    4.5867    1.4148    0.0000 N   0  0  0  0  0  0  0  0  0  0  0  0
    6.1157    1.8864    0.0000 C   0  0  0  0  0  0  0  0  0  0  0  0
    3.4139    2.5031    0.0000 C   0  0  0  0  0  0  0  0  0  0  0  0
    1.8849    2.0315    0.0000 C   0  0  0  0  0  0  0  0  0  0  0  0
  1  2  1  0  0  0  0
  1 15  2  0  0  0  0
  2  3  2  0  0  0  0
  3  4  1  0  0  0  0
  4  5  2  0  0  0  0
  5  6  1  0  0  0  0
  5 15  1  0  0  0  0
  6  7  1  0  0  0  0
  7  8  1  0  0  0  0
  8  9  1  0  0  0  0
  8 13  2  0  0  0  0
  9 10  2  0  0  0  0
 10 11  1  0  0  0  0
 11 12  2  0  0  0  0
 12 13  1  0  0  0  0
 13 14  1  0  0  0  0
 14 15  1  0  0  0  0
 14 16  2  0  0  0  0
 16 17  1  0  0  0  0
 16 22  1  0  0  0  0
 17 18  1  0  0  0  0
 18 19  1  0  0  0  0
 19 20  1  6  0  0  0
 19 21  1  0  0  0  0
 21 22  1  0  0  0  0
M  END
> <Acceptable>
true

> <IC50>
N/A

$$$$

Generated by Molecular Materials Informatics

 32 35  0  0  0  0  0  0  0  0999 V2000
  -15.3748    2.8301    0.0000 Cl  0  0  0  0  0  0  0  0  0  0  0  0
  -13.7748    2.8301    0.0000 C   0  0  0  0  0  0  0  0  0  0  0  0
  -12.9748    1.4445    0.0000 C   0  0  0  0  0  0  0  0  0  0  0  0
  -11.3748    1.4445    0.0000 C   0  0  0  0  0  0  0  0  0  0  0  0
  -10.5748    2.8301    0.0000 C   0  0  0  0  0  0  0  0  0  0  0  0
  -11.3748    4.2158    0.0000 C   0  0  0  0  0  0  0  0  0  0  0  0
  -12.9748    4.2158    0.0000 C   0  0  0  0  0  0  0  0  0  0  0  0
   -8.9748    2.8301    0.0000 C   0  0  0  0  0  0  0  0  0  0  0  0
   -8.0344    1.5357    0.0000 O   0  0  0  0  0  0  0  0  0  0  0  0
   -6.5127    2.0301    0.0000 C   0  0  0  0  0  0  0  0  0  0  0  0
   -6.5127    3.6301    0.0000 C   0  0  0  0  0  0  0  0  0  0  0  0
   -8.0344    4.1246    0.0000 C   0  0  0  0  0  0  0  0  0  0  0  0
   -5.2182    1.0897    0.0000 C   0  0  0  0  0  0  0  0  0  0  0  0
   -3.7566    1.7405    0.0000 N   0  0  0  0  0  0  0  0  0  0  0  0
   -2.4621    0.8000    0.0000 N   0  0  0  0  0  0  0  0  0  0  0  0
   -2.4621   -0.8000    0.0000 C   0  0  0  0  0  0  0  0  0  0  0  0
   -0.9405   -1.2944    0.0000 C   0  0  0  0  0  0  0  0  0  0  0  0
   -0.4460   -2.8161    0.0000 O   0  0  0  0  0  0  0  0  0  0  0  0
    0.0000    0.0000    0.0000 N   0  0  0  0  0  0  0  0  0  0  0  0
    1.6000    0.0000    0.0000 C   0  0  0  0  0  0  0  0  0  0  0  0
    2.4000   -1.3856    0.0000 C   0  0  0  0  0  0  0  0  0  0  0  0
    4.0000   -1.3856    0.0000 C   0  0  0  0  0  0  0  0  0  0  0  0
    4.8000   -2.7713    0.0000 C   0  0  0  0  0  0  0  0  0  0  0  0
    6.4000   -2.7713    0.0000 N   0  0  0  0  0  0  0  0  0  0  0  0
    7.2000   -4.1569    0.0000 C   0  0  0  0  0  0  0  0  0  0  0  0
    8.8000   -4.1569    0.0000 C   0  0  0  0  0  0  0  0  0  0  0  0
    9.6000   -2.7713    0.0000 N   0  0  0  0  0  0  0  0  0  0  0  0
   11.2000   -2.7713    0.0000 C   0  0  0  0  0  0  0  0  0  0  0  0
    8.8000   -1.3856    0.0000 C   0  0  0  0  0  0  0  0  0  0  0  0
    7.2000   -1.3856    0.0000 C   0  0  0  0  0  0  0  0  0  0  0  0
   -0.9405    1.2944    0.0000 C   0  0  0  0  0  0  0  0  0  0  0  0
   -0.4460    2.8161    0.0000 O   0  0  0  0  0  0  0  0  0  0  0  0
  1  2  1  0  0  0  0
  2  3  1  0  0  0  0
  2  7  2  0  0  0  0
  3  4  2  0  0  0  0
  4  5  1  0  0  0  0
  5  6  2  0  0  0  0
  5  8  1  0  0  0  0
  6  7  1  0  0  0  0
  8  9  1  0  0  0  0
  8 12  2  0  0  0  0
  9 10  1  0  0  0  0
 10 11  2  0  0  0  0
 10 13  1  0  0  0  0
 11 12  1  0  0  0  0
 13 14  2  0  0  0  0
 14 15  1  0  0  0  0
 15 16  1  0  0  0  0
 15 31  1  0  0  0  0
 16 17  1  0  0  0  0
 17 18  2  0  0  0  0
 17 19  1  0  0  0  0
 19 20  1  0  0  0  0
 19 31  1  0  0  0  0
 20 21  1  0  0  0  0
 21 22  1  0  0  0  0
 22 23  1  0  0  0  0
 24 23  1  1  0  0  0
 24 25  1  0  0  0  0
 24 30  1  0  0  0  0
 25 26  1  0  0  0  0
 26 27  1  0  0  0  0
 27 28  1  6  0  0  0
 27 29  1  0  0  0  0
 29 30  1  0  0  0  0
 31 32  2  0  0  0  0
M  END
> <Acceptable>
false

> <IC50>
1.4

$$$$

Generated by Molecular Materials Informatics

 39 40  0  0  0  0  0  0  0  0999 V2000
  -11.0851    0.0000    0.0000 C   0  0  0  0  0  0  0  0  0  0  0  0
  -11.0851    1.6000    0.0000 C   0  0  0  0  0  0  0  0  0  0  0  0
   -9.6995    2.4000    0.0000 C   0  0  0  0  0  0  0  0  0  0  0  0
   -8.3138    1.6000    0.0000 C   0  0  0  0  0  0  0  0  0  0  0  0
   -8.3138    0.0000    0.0000 C   0  0  0  0  0  0  0  0  0  0  0  0
   -9.6995   -0.8000    0.0000 C   0  0  0  0  0  0  0  0  0  0  0  0
   -9.6995   -2.4000    0.0000 N   0  0  0  0  0  0  0  0  0  0  0  0
   -8.3138   -3.2000    0.0000 C   0  0  0  0  0  0  0  0  0  0  0  0
   -8.3138   -4.8000    0.0000 C   0  0  0  0  0  0  0  0  0  0  0  0
   -9.6995   -5.6000    0.0000 O   0  0  0  0  0  0  0  0  0  0  0  0
   -6.9282   -5.6000    0.0000 O   0  0  0  0  0  0  0  0  0  0  0  0
  -11.0851   -3.2000    0.0000 C   0  0  0  0  0  0  0  0  0  0  0  0
  -12.5886   -2.6528    0.0000 C   0  0  0  0  0  0  0  0  0  0  0  0
  -12.8665   -1.0771    0.0000 O   0  0  0  0  0  0  0  0  0  0  0  0
  -13.8143   -3.6812    0.0000 O   0  0  0  0  0  0  0  0  0  0  0  0
   -6.9282   -0.8000    0.0000 O   0  0  0  0  0  0  0  0  0  0  0  0
   -5.5426    0.0000    0.0000 C   0  0  0  0  0  0  0  0  0  0  0  0
   -4.1569   -0.8000    0.0000 C   0  0  0  0  0  0  0  0  0  0  0  0
   -2.7713    0.0000    0.0000 O   0  0  0  0  0  0  0  0  0  0  0  0
   -1.3856   -0.8000    0.0000 C   0  0  0  0  0  0  0  0  0  0  0  0
    0.0000    0.0000    0.0000 C   0  0  0  0  0  0  0  0  0  0  0  0
    1.3856   -0.8000    0.0000 C   0  0  0  0  0  0  0  0  0  0  0  0
    1.3856   -2.4000    0.0000 C   0  0  0  0  0  0  0  0  0  0  0  0
    0.0000   -3.2000    0.0000 C   0  0  0  0  0  0  0  0  0  0  0  0
   -1.3856   -2.4000    0.0000 C   0  0  0  0  0  0  0  0  0  0  0  0
    0.0000    1.6000    0.0000 N   0  0  0  0  0  0  0  0  0  0  0  0
   -1.3856    2.4000    0.0000 C   0  0  0  0  0  0  0  0  0  0  0  0
    1.3856    2.4000    0.0000 C   0  0  0  0  0  0  0  0  0  0  0  0
    2.7713    1.6000    0.0000 C   0  0  0  0  0  0  0  0  0  0  0  0
    2.7713    0.0000    0.0000 O   0  0  0  0  0  0  0  0  0  0  0  0
    4.1569    2.4000    0.0000 O   0  0  0  0  0  0  0  0  0  0  0  0
    5.5426    1.6000    0.0000 C   0  0  0  0  0  0  0  0  0  0  0  0
    6.9282    2.4000    0.0000 O   0  0  0  0  0  0  0  0  0  0  0  0
    8.3138    1.6000    0.0000 C   0  0  0  0  0  0  0  0  0  0  0  0
    8.3138    0.0000    0.0000 C   0  0  0  0  0  0  0  0  0  0  0  0
    9.6995    2.4000    0.0000 O   0  0  0  0  0  0  0  0  0  0  0  0
   -1.3856    4.0000    0.0000 C   0  0  0  0  0  0  0  0  0  0  0  0
    0.0000    4.8000    0.0000 O   0  0  0  0  0  0  0  0  0  0  0  0
   -2.7713    4.8000    0.0000 O   0  0  0  0  0  0  0  0  0  0  0  0
  1  2  1  0  0  0  0
  1  6  2  0  0  0  0
  2  3  2  0  0  0  0
  3  4  1  0  0  0  0
  4  5  2  0  0  0  0
  5  6  1  0  0  0  0
  5 16  1  0  0  0  0
  6  7  1  0  0  0  0
  7  8  1  0  0  0  0
  7 12  1  0  0  0  0
  8  9  1  0  0  0  0
  9 10  2  0  0  0  0
  9 11  1  0  0  0  0
 12 13  1  0  0  0  0
 13 14  1  0  0  0  0
 13 15  2  0  0  0  0
 16 17  1  0  0  0  0
 17 18  1  0  0  0  0
 18 19  1  0  0  0  0
 19 20  1  0  0  0  0
 20 21  1  0  0  0  0
 20 25  2  0  0  0  0
 21 22  2  0  0  0  0
 21 26  1  0  0  0  0
 22 23  1  0  0  0  0
 23 24  2  0  0  0  0
 24 25  1  0  0  0  0
 26 27  1  0  0  0  0
 26 28  1  0  0  0  0
 27 37  1  0  0  0  0
 28 29  1  0  0  0  0
 29 30  2  0  0  0  0
 29 31  1  0  0  0  0
 31 32  1  0  0  0  0
 32 33  1  0  0  0  0
 33 34  1  0  0  0  0
 34 35  1  0  0  0  0
 34 36  2  0  0  0  0
 37 38  1  0  0  0  0
 37 39  2  0  0  0  0
M  END
> <Acceptable>
false

> <IC50>
1.31

$$$$

Generated by Molecular Materials Informatics

 26 28  0  0  0  0  0  0  0  0999 V2000
    1.6000    0.0000    0.0000 N   0  0  0  0  0  0  0  0  0  0  0  0
    0.0000    0.0000    0.0000 C   0  0  0  0  0  0  0  0  0  0  0  0
    2.4000   -1.3856    0.0000 C   0  0  0  0  0  0  0  0  0  0  0  0
    2.4000    1.3856    0.0000 C   0  0  0  0  0  0  0  0  0  0  0  0
   -0.8000    1.3856    0.0000 C   0  0  0  0  0  0  0  0  0  0  0  0
   -0.8000   -1.3856    0.0000 N   0  0  0  0  0  0  0  0  0  0  0  0
    4.0000   -1.3856    0.0000 C   0  0  0  0  0  0  0  0  0  0  0  0
    4.0000    1.3856    0.0000 C   0  0  0  0  0  0  0  0  0  0  0  0
   -2.4000    1.3856    0.0000 C   0  0  0  0  0  0  0  0  0  0  0  0
    0.0000    2.7713    0.0000 Cl  0  0  0  0  0  0  0  0  0  0  0  0
   -2.4000   -1.3856    0.0000 C   0  0  0  0  0  0  0  0  0  0  0  0
    4.8000    0.0000    0.0000 N   0  0  0  0  0  0  0  0  0  0  0  0
   -3.2000    0.0000    0.0000 C   0  0  0  0  0  0  0  0  0  0  0  0
    6.4000    0.0000    0.0000 C   0  0  0  0  0  0  0  0  0  0  0  0
    7.2000   -1.3856    0.0000 N   0  0  0  0  0  0  0  0  0  0  0  0
    7.2000    1.3856    0.0000 O   0  0  0  0  0  0  0  0  0  0  0  0
    8.8000   -1.3856    0.0000 C   0  0  0  0  0  0  0  0  0  0  0  0
    9.6000   -2.7713    0.0000 C   0  0  0  0  0  0  0  0  0  0  0  0
    9.6000    0.0000    0.0000 C   0  0  0  0  0  0  0  0  0  0  0  0
   11.2000   -2.7713    0.0000 C   0  0  0  0  0  0  0  0  0  0  0  0
   11.2000    0.0000    0.0000 C   0  0  0  0  0  0  0  0  0  0  0  0
   12.0000   -1.3856    0.0000 C   0  0  0  0  0  0  0  0  0  0  0  0
   13.6000   -1.3856    0.0000 C   0  0  0  0  0  0  0  0  0  0  0  0
   14.4000    0.0000    0.0000 C   0  0  0  0  0  0  0  0  0  0  0  0
   14.4000   -2.7713    0.0000 C   0  0  0  0  0  0  0  0  0  0  0  0
   15.2000   -1.3856    0.0000 C   0  0  0  0  0  0  0  0  0  0  0  0
  1  2  1  0  0  0  0
  1  3  1  0  0  0  0
  1  4  1  0  0  0  0
  2  5  2  0  0  0  0
  2  6  1  0  0  0  0
  3  7  1  0  0  0  0
  4  8  1  0  0  0  0
  5  9  1  0  0  0  0
  5 10  1  0  0  0  0
  6 11  2  0  0  0  0
  7 12  1  0  0  0  0
  8 12  1  0  0  0  0
  9 13  2  0  0  0  0
 11 13  1  0  0  0  0
 12 14  1  0  0  0  0
 14 15  1  0  0  0  0
 14 16  2  0  0  0  0
 15 17  1  0  0  0  0
 17 18  2  0  0  0  0
 17 19  1  0  0  0  0
 18 20  1  0  0  0  0
 19 21  2  0  0  0  0
 20 22  2  0  0  0  0
 21 22  1  0  0  0  0
 22 23  1  0  0  0  0
 23 24  1  0  0  0  0
 23 25  1  0  0  0  0
 23 26  1  0  0  0  0
M  END
> <Acceptable>
false

> <IC50>
1

$$$$

Generated by Molecular Materials Informatics

 40 44  0  0  0  0  0  0  0  0999 V2000
   -6.3649   -0.6690    0.0000 Cl  0  0  0  0  0  0  0  0  0  0  0  0
   -4.7737   -0.5017    0.0000 C   0  0  0  0  0  0  0  0  0  0  0  0
   -3.8332   -1.7962    0.0000 C   0  0  0  0  0  0  0  0  0  0  0  0
   -2.2420   -1.6289    0.0000 C   0  0  0  0  0  0  0  0  0  0  0  0
   -1.5912   -0.1672    0.0000 C   0  0  0  0  0  0  0  0  0  0  0  0
   -2.5317    1.1272    0.0000 C   0  0  0  0  0  0  0  0  0  0  0  0
   -4.1229    0.9599    0.0000 C   0  0  0  0  0  0  0  0  0  0  0  0
    0.0000    0.0000    0.0000 C   0  0  0  0  0  0  0  0  0  0  0  0
    0.6508    1.4617    0.0000 N   0  0  0  0  0  0  0  0  0  0  0  0
    2.2158    1.7943    0.0000 C   0  0  0  0  0  0  0  0  0  0  0  0
    2.3831    3.3856    0.0000 N   0  3  0  0  0  0  0  0  0  0  0  0
    0.9214    4.0363    0.0000 C   0  0  0  0  0  0  0  0  0  0  0  0
   -0.1492    2.8473    0.0000 C   0  0  0  0  0  0  0  0  0  0  0  0
    3.7687    4.1856    0.0000 C   0  0  0  0  0  0  0  0  0  0  0  0
    3.7687    5.7856    0.0000 C   0  0  0  0  0  0  0  0  0  0  0  0
    2.3831    6.5856    0.0000 O   0  0  0  0  0  0  0  0  0  0  0  0
    0.9974    5.7856    0.0000 C   0  0  0  0  0  0  0  0  0  0  0  0
   -0.3882    6.5856    0.0000 C   0  0  0  0  0  0  0  0  0  0  0  0
   -0.3882    8.1856    0.0000 C   0  0  0  0  0  0  0  0  0  0  0  0
   -1.7739    8.9856    0.0000 C   0  0  0  0  0  0  0  0  0  0  0  0
   -3.1595    8.1856    0.0000 C   0  0  0  0  0  0  0  0  0  0  0  0
   -4.5451    8.9856    0.0000 Cl  0  0  0  0  0  0  0  0  0  0  0  0
   -3.1595    6.5856    0.0000 C   0  0  0  0  0  0  0  0  0  0  0  0
   -1.7739    5.7856    0.0000 C   0  0  0  0  0  0  0  0  0  0  0  0
   -1.7739    4.1856    0.0000 Cl  0  0  0  0  0  0  0  0  0  0  0  0
    5.1543    6.5856    0.0000 C   0  0  0  0  0  0  0  0  0  0  0  0
    6.5400    5.7856    0.0000 C   0  0  0  0  0  0  0  0  0  0  0  0
    7.9256    6.5856    0.0000 C   0  0  0  0  0  0  0  0  0  0  0  0
    7.9256    8.1856    0.0000 C   0  0  0  0  0  0  0  0  0  0  0  0
    9.3113    8.9856    0.0000 Cl  0  0  0  0  0  0  0  0  0  0  0  0
    6.5400    8.9856    0.0000 C   0  0  0  0  0  0  0  0  0  0  0  0
    5.1543    8.1856    0.0000 C   0  0  0  0  0  0  0  0  0  0  0  0
    3.7687    8.9856    0.0000 Cl  0  0  0  0  0  0  0  0  0  0  0  0
    0.9405   -1.2944    0.0000 C   0  0  0  0  0  0  0  0  0  0  0  0
    0.2897   -2.7561    0.0000 C   0  0  0  0  0  0  0  0  0  0  0  0
    1.2301   -4.0505    0.0000 C   0  0  0  0  0  0  0  0  0  0  0  0
    2.8214   -3.8833    0.0000 C   0  0  0  0  0  0  0  0  0  0  0  0
    3.7618   -5.1777    0.0000 Cl  0  0  0  0  0  0  0  0  0  0  0  0
    3.4721   -2.4216    0.0000 C   0  0  0  0  0  0  0  0  0  0  0  0
    2.5317   -1.1272    0.0000 C   0  0  0  0  0  0  0  0  0  0  0  0
  1  2  1  0  0  0  0
  2  3  1  0  0  0  0
  2  7  2  0  0  0  0
  3  4  2  0  0  0  0
  4  5  1  0  0  0  0
  5  6  2  0  0  0  0
  5  8  1  0  0  0  0
  6  7  1  0  0  0  0
  8  9  1  0  0  0  0
  8 34  1  0  0  0  0
  9 10  1  0  0  0  0
  9 13  1  0  0  0  0
 10 11  2  0  0  0  0
 11 12  1  0  0  0  0
 11 14  1  0  0  0  0
 12 13  2  0  0  0  0
 14 15  1  0  0  0  0
 15 16  1  6  0  0  0
 15 26  1  0  0  0  0
 16 17  1  0  0  0  0
 17 18  1  0  0  0  0
 18 19  1  0  0  0  0
 18 24  2  0  0  0  0
 19 20  2  0  0  0  0
 20 21  1  0  0  0  0
 21 22  1  0  0  0  0
 21 23  2  0  0  0  0
 23 24  1  0  0  0  0
 24 25  1  0  0  0  0
 26 27  1  0  0  0  0
 26 32  2  0  0  0  0
 27 28  2  0  0  0  0
 28 29  1  0  0  0  0
 29 30  1  0  0  0  0
 29 31  2  0  0  0  0
 31 32  1  0  0  0  0
 32 33  1  0  0  0  0
 34 35  1  0  0  0  0
 34 40  2  0  0  0  0
 35 36  2  0  0  0  0
 36 37  1  0  0  0  0
 37 38  1  0  0  0  0
 37 39  2  0  0  0  0
 39 40  1  0  0  0  0
M  CHG  1  11   1
M  END
> <Acceptable>
false

> <IC50>
0.03

$$$$

Generated by Molecular Materials Informatics

 27 29  0  0  0  0  0  0  0  0999 V2000
    1.3856   -0.8000    0.0000 S   0  0  0  0  0  0  0  0  0  0  0  0
    0.3572   -2.0257    0.0000 O   0  0  0  0  0  0  0  0  0  0  0  0
    2.4141   -2.0257    0.0000 O   0  0  0  0  0  0  0  0  0  0  0  0
    2.7713    0.0000    0.0000 N   0  0  0  0  0  0  0  0  0  0  0  0
    2.7713    1.6000    0.0000 C   0  0  0  0  0  0  0  0  0  0  0  0
    1.3856    2.4000    0.0000 N   0  0  0  0  0  0  0  0  0  0  0  0
    0.0000    1.6000    0.0000 C   0  0  0  0  0  0  0  0  0  0  0  0
   -1.3856    2.4000    0.0000 C   0  0  0  0  0  0  0  0  0  0  0  0
   -2.7713    1.6000    0.0000 C   0  0  0  0  0  0  0  0  0  0  0  0
   -2.7713    0.0000    0.0000 C   0  0  0  0  0  0  0  0  0  0  0  0
   -4.1569   -0.8000    0.0000 S   0  0  0  0  0  0  0  0  0  0  0  0
   -4.9569    0.5856    0.0000 O   0  0  0  0  0  0  0  0  0  0  0  0
   -3.3569   -2.1856    0.0000 O   0  0  0  0  0  0  0  0  0  0  0  0
   -5.5426   -1.6000    0.0000 N   0  0  0  0  0  0  0  0  0  0  0  0
   -1.3856   -0.8000    0.0000 C   0  0  0  0  0  0  0  0  0  0  0  0
    0.0000    0.0000    0.0000 C   0  0  0  0  0  0  0  0  0  0  0  0
   -4.1569    2.4000    0.0000 C   0  0  0  0  0  0  0  0  0  0  0  0
   -5.5426    1.6000    0.0000 F   0  0  0  0  0  0  0  0  0  0  0  0
   -4.1569    4.0000    0.0000 F   0  0  0  0  0  0  0  0  0  0  0  0
   -5.5426    3.2000    0.0000 F   0  0  0  0  0  0  0  0  0  0  0  0
    4.1569    2.4000    0.0000 C   0  0  0  0  0  0  0  0  0  0  0  0
    5.5426    1.6000    0.0000 C   0  0  0  0  0  0  0  0  0  0  0  0
    5.5426    0.0000    0.0000 C   0  0  0  0  0  0  0  0  0  0  0  0
    6.9282   -0.8000    0.0000 C   0  0  0  0  0  0  0  0  0  0  0  0
    8.3138    0.0000    0.0000 C   0  0  0  0  0  0  0  0  0  0  0  0
    8.3138    1.6000    0.0000 C   0  0  0  0  0  0  0  0  0  0  0  0
    6.9282    2.4000    0.0000 C   0  0  0  0  0  0  0  0  0  0  0  0
  1  2  2  0  0  0  0
  1  3  2  0  0  0  0
  1  4  1  0  0  0  0
  1 16  1  0  0  0  0
  4  5  1  0  0  0  0
  5  6  1  0  0  0  0
  5 21  1  6  0  0  0
  6  7  1  0  0  0  0
  7  8  1  0  0  0  0
  7 16  2  0  0  0  0
  8  9  2  0  0  0  0
  9 10  1  0  0  0  0
  9 17  1  0  0  0  0
 10 11  1  0  0  0  0
 10 15  2  0  0  0  0
 11 12  2  0  0  0  0
 11 13  2  0  0  0  0
 11 14  1  0  0  0  0
 15 16  1  0  0  0  0
 17 18  1  0  0  0  0
 17 19  1  0  0  0  0
 17 20  1  0  0  0  0
 21 22  1  0  0  0  0
 22 23  1  0  0  0  0
 22 27  2  0  0  0  0
 23 24  2  0  0  0  0
 24 25  1  0  0  0  0
 25 26  2  0  0  0  0
 26 27  1  0  0  0  0
M  END
> <Acceptable>
true

> <IC50>
N/A

$$$$

Generated by Molecular Materials Informatics

 28 31  0  0  0  0  0  0  0  0999 V2000
   -2.6356    0.8564    0.0000 C   0  0  0  0  0  0  0  0  0  0  0  0
   -4.2007    0.5237    0.0000 C   0  0  0  0  0  0  0  0  0  0  0  0
   -4.6951   -0.9980    0.0000 N   0  0  0  0  0  0  0  0  0  0  0  0
   -6.2601   -1.3306    0.0000 C   0  0  0  0  0  0  0  0  0  0  0  0
   -7.3308   -0.1416    0.0000 C   0  0  0  0  0  0  0  0  0  0  0  0
   -8.8958   -0.4743    0.0000 C   0  0  0  0  0  0  0  0  0  0  0  0
   -9.9664    0.7148    0.0000 C   0  0  0  0  0  0  0  0  0  0  0  0
  -11.5314    0.3821    0.0000 C   0  0  0  0  0  0  0  0  0  0  0  0
   -9.4720    2.2365    0.0000 O   0  0  0  0  0  0  0  0  0  0  0  0
   -3.6245   -2.1870    0.0000 C   0  0  0  0  0  0  0  0  0  0  0  0
   -2.0595   -1.8544    0.0000 C   0  0  0  0  0  0  0  0  0  0  0  0
   -1.5650   -0.3327    0.0000 C   0  0  0  0  0  0  0  0  0  0  0  0
    0.0000    0.0000    0.0000 N   0  0  0  0  0  0  0  0  0  0  0  0
  -12.6020    1.5711    0.0000 C   0  0  0  0  0  0  0  0  0  0  0  0
  -14.1671    1.2385    0.0000 C   0  0  0  0  0  0  0  0  0  0  0  0
  -14.6615   -0.2832    0.0000 C   0  0  0  0  0  0  0  0  0  0  0  0
  -16.2265   -0.6159    0.0000 F   0  0  0  0  0  0  0  0  0  0  0  0
  -13.5909   -1.4722    0.0000 C   0  0  0  0  0  0  0  0  0  0  0  0
  -12.0259   -1.1396    0.0000 C   0  0  0  0  0  0  0  0  0  0  0  0
    1.1890   -1.0706    0.0000 C   0  0  0  0  0  0  0  0  0  0  0  0
    2.5747   -0.2706    0.0000 C   0  0  0  0  0  0  0  0  0  0  0  0
    2.2420    1.2944    0.0000 N   0  0  0  0  0  0  0  0  0  0  0  0
    0.6508    1.4617    0.0000 C   0  0  0  0  0  0  0  0  0  0  0  0
   -0.1492    2.8473    0.0000 O   0  0  0  0  0  0  0  0  0  0  0  0
    1.1890   -2.6706    0.0000 C   0  0  0  0  0  0  0  0  0  0  0  0
    2.5747   -3.4706    0.0000 C   0  0  0  0  0  0  0  0  0  0  0  0
    3.9603   -2.6706    0.0000 C   0  0  0  0  0  0  0  0  0  0  0  0
    3.9603   -1.0706    0.0000 C   0  0  0  0  0  0  0  0  0  0  0  0
  1  2  1  0  0  0  0
  1 12  1  0  0  0  0
  2  3  1  0  0  0  0
  3  4  1  6  0  0  0
  3 10  1  0  0  0  0
  4  5  1  0  0  0  0
  5  6  1  0  0  0  0
  6  7  1  0  0  0  0
  7  8  1  0  0  0  0
  7  9  2  0  0  0  0
  8 14  1  0  0  0  0
  8 19  2  0  0  0  0
 10 11  1  0  0  0  0
 11 12  1  0  0  0  0
 12 13  1  6  0  0  0
 13 20  1  0  0  0  0
 13 23  1  0  0  0  0
 14 15  2  0  0  0  0
 15 16  1  0  0  0  0
 16 17  1  0  0  0  0
 16 18  2  0  0  0  0
 18 19  1  0  0  0  0
 20 21  1  0  0  0  0
 20 25  2  0  0  0  0
 21 22  1  0  0  0  0
 21 28  2  0  0  0  0
 22 23  1  0  0  0  0
 23 24  2  0  0  0  0
 25 26  1  0  0  0  0
 26 27  2  0  0  0  0
 27 28  1  0  0  0  0
M  END
> <Acceptable>
false

> <IC50>
0.0034

$$$$

Generated by Molecular Materials Informatics

 13 13  0  0  0  0  0  0  0  0999 V2000
   -5.5426    1.6000    0.0000 O   0  0  0  0  0  0  0  0  0  0  0  0
   -4.1569    2.4000    0.0000 C   0  0  0  0  0  0  0  0  0  0  0  0
   -2.7713    1.6000    0.0000 C   0  0  0  0  0  0  0  0  0  0  0  0
   -1.3856    2.4000    0.0000 C   0  0  0  0  0  0  0  0  0  0  0  0
    0.0000    1.6000    0.0000 C   0  0  0  0  0  0  0  0  0  0  0  0
    0.0000    0.0000    0.0000 C   0  0  0  0  0  0  0  0  0  0  0  0
    1.3856   -0.8000    0.0000 N   0  0  0  0  0  0  0  0  0  0  0  0
    2.7713    0.0000    0.0000 C   0  0  0  0  0  0  0  0  0  0  0  0
    4.1569   -0.8000    0.0000 C   0  0  0  0  0  0  0  0  0  0  0  0
    5.5426    0.0000    0.0000 C   0  0  0  0  0  0  0  0  0  0  0  0
    6.9282   -0.8000    0.0000 C   0  0  0  0  0  0  0  0  0  0  0  0
   -1.3856   -0.8000    0.0000 C   0  0  0  0  0  0  0  0  0  0  0  0
   -2.7713    0.0000    0.0000 C   0  0  0  0  0  0  0  0  0  0  0  0
  1  2  2  0  0  0  0
  2  3  1  0  0  0  0
  3  4  1  0  0  0  0
  3 13  2  0  0  0  0
  4  5  2  0  0  0  0
  5  6  1  0  0  0  0
  6  7  1  0  0  0  0
  6 12  2  0  0  0  0
  7  8  1  0  0  0  0
  8  9  1  0  0  0  0
  9 10  1  0  0  0  0
 10 11  1  0  0  0  0
 12 13  1  0  0  0  0
M  END
> <Acceptable>
true

> <IC50>
N/A

$$$$

Generated by Molecular Materials Informatics

 21 23  0  0  0  0  0  0  0  0999 V2000
    4.0555    1.3778    0.0000 O   0  0  0  0  0  0  0  0  0  0  0  0
    4.0540   -0.2222    0.0000 C   0  0  0  0  0  0  0  0  0  0  0  0
    2.6675   -1.0208    0.0000 O   0  0  0  0  0  0  0  0  0  0  0  0
    1.2827   -0.2195    0.0000 C   0  0  0  0  0  0  0  0  0  0  0  0
    0.2580    1.0194    0.0000 C   0  0  0  0  0  0  0  0  0  0  0  0
   -1.2870    0.0927    0.0000 C   0  0  0  0  0  0  0  0  0  0  0  0
   -2.6551    0.2879    0.0000 N   0  0  0  0  0  0  0  0  0  0  0  0
   -4.0519    1.0682    0.0000 C   0  0  0  0  0  0  0  0  0  0  0  0
   -1.6320   -0.9422    0.0000 C   0  0  0  0  0  0  0  0  0  0  0  0
   -1.8145   -2.6427    0.0000 C   0  0  0  0  0  0  0  0  0  0  0  0
   -1.1381   -1.4082    0.0000 C   0  0  0  0  0  0  0  0  0  0  0  0
    0.0000    0.0000    0.0000 C   0  0  0  0  0  0  0  0  0  0  0  0
    0.2818   -1.5750    0.0000 C   0  0  0  0  0  0  0  0  0  0  0  0
   -0.5147   -2.9626    0.0000 O   0  0  0  0  0  0  0  0  0  0  0  0
    1.7867   -2.1184    0.0000 O   0  0  0  0  0  0  0  0  0  0  0  0
    5.4388   -1.0236    0.0000 C   0  0  0  0  0  0  0  0  0  0  0  0
    6.8252   -0.2249    0.0000 C   0  0  0  0  0  0  0  0  0  0  0  0
    8.2101   -1.0263    0.0000 C   0  0  0  0  0  0  0  0  0  0  0  0
    8.2085   -2.6263    0.0000 C   0  0  0  0  0  0  0  0  0  0  0  0
    6.8221   -3.4249    0.0000 C   0  0  0  0  0  0  0  0  0  0  0  0
    5.4373   -2.6236    0.0000 C   0  0  0  0  0  0  0  0  0  0  0  0
  1  2  2  0  0  0  0
  2  3  1  0  0  0  0
  2 16  1  0  0  0  0
  4  3  1  1  0  0  0
  4  5  1  0  0  0  0
  4 12  1  0  0  0  0
  6  5  1  1  0  0  0
  6  7  1  0  0  0  0
  6 11  1  0  0  0  0
  7  8  1  1  0  0  0
  7  9  1  0  0  0  0
  9 10  1  0  0  0  0
  9 12  1  0  0  0  0
 10 11  1  0  0  0  0
 12 13  1  6  0  0  0
 13 14  2  0  0  0  0
 13 15  1  0  0  0  0
 16 17  1  0  0  0  0
 16 21  2  0  0  0  0
 17 18  2  0  0  0  0
 18 19  1  0  0  0  0
 19 20  2  0  0  0  0
 20 21  1  0  0  0  0
M  END
> <Acceptable>
true

> <IC50>
391.5

$$$$

Generated by Molecular Materials Informatics

 23 26  0  0  0  0  0  0  0  0999 V2000
   -1.3864   -0.7986    0.0000 O   0  0  0  0  0  0  0  0  0  0  0  0
   -2.7713    0.0027    0.0000 C   0  0  0  0  0  0  0  0  0  0  0  0
   -3.7960    1.2416    0.0000 C   0  0  0  0  0  0  0  0  0  0  0  0
   -5.3409    0.3149    0.0000 C   0  0  0  0  0  0  0  0  0  0  0  0
   -6.7090    0.5101    0.0000 N   0  0  0  0  0  0  0  0  0  0  0  0
   -8.1059    1.2904    0.0000 C   0  0  0  0  0  0  0  0  0  0  0  0
   -5.6860   -0.7200    0.0000 C   0  0  0  0  0  0  0  0  0  0  0  0
   -4.0540    0.2222    0.0000 C   0  0  0  0  0  0  0  0  0  0  0  0
   -5.8685   -2.4205    0.0000 C   0  0  0  0  0  0  0  0  0  0  0  0
   -5.1921   -1.1860    0.0000 C   0  0  0  0  0  0  0  0  0  0  0  0
    0.0000    0.0000    0.0000 C   0  0  0  0  0  0  0  0  0  0  0  0
    0.0016    1.6000    0.0000 C   0  0  0  0  0  0  0  0  0  0  0  0
   -1.3833    2.4014    0.0000 C   0  0  0  0  0  0  0  0  0  0  0  0
   -1.3817    4.0014    0.0000 C   0  0  0  0  0  0  0  0  0  0  0  0
    0.0047    4.8000    0.0000 C   0  0  0  0  0  0  0  0  0  0  0  0
    1.3895    3.9986    0.0000 C   0  0  0  0  0  0  0  0  0  0  0  0
    1.3880    2.3986    0.0000 C   0  0  0  0  0  0  0  0  0  0  0  0
    1.3849   -0.8014    0.0000 C   0  0  0  0  0  0  0  0  0  0  0  0
    2.7713   -0.0027    0.0000 C   0  0  0  0  0  0  0  0  0  0  0  0
    4.1561   -0.8041    0.0000 C   0  0  0  0  0  0  0  0  0  0  0  0
    4.1546   -2.4041    0.0000 C   0  0  0  0  0  0  0  0  0  0  0  0
    2.7682   -3.2027    0.0000 C   0  0  0  0  0  0  0  0  0  0  0  0
    1.3833   -2.4014    0.0000 C   0  0  0  0  0  0  0  0  0  0  0  0
  2  1  1  1  0  0  0
  1 11  1  0  0  0  0
  2  3  1  0  0  0  0
  2  8  1  0  0  0  0
  3  4  1  0  0  0  0
  4  5  1  0  0  0  0
  4 10  1  6  0  0  0
  5  6  1  6  0  0  0
  5  7  1  0  0  0  0
  7  8  1  0  0  0  0
  7  9  1  1  0  0  0
  9 10  1  0  0  0  0
 11 12  1  0  0  0  0
 11 18  1  0  0  0  0
 12 13  1  0  0  0  0
 12 17  2  0  0  0  0
 13 14  2  0  0  0  0
 14 15  1  0  0  0  0
 15 16  2  0  0  0  0
 16 17  1  0  0  0  0
 18 19  1  0  0  0  0
 18 23  2  0  0  0  0
 19 20  2  0  0  0  0
 20 21  1  0  0  0  0
 21 22  2  0  0  0  0
 22 23  1  0  0  0  0
M  END
> <Acceptable>
true

> <IC50>
N/A

$$$$

Generated by Molecular Materials Informatics

 27 29  0  0  0  0  0  0  0  0999 V2000
   -4.1569    2.4000    0.0000 O   0  0  0  0  0  0  0  0  0  0  0  0
   -4.1569    4.0000    0.0000 C   0  0  0  0  0  0  0  0  0  0  0  0
   -5.5426    4.8000    0.0000 C   0  0  0  0  0  0  0  0  0  0  0  0
   -6.9282    4.0000    0.0000 C   0  0  0  0  0  0  0  0  0  0  0  0
   -5.5426    6.4000    0.0000 C   0  0  0  0  0  0  0  0  0  0  0  0
   -2.7713    1.6000    0.0000 C   0  0  0  0  0  0  0  0  0  0  0  0
   -2.7713    0.0000    0.0000 C   0  0  0  0  0  0  0  0  0  0  0  0
   -4.1569   -0.8000    0.0000 N   0  0  0  0  0  0  0  0  0  0  0  0
   -5.6186   -0.1492    0.0000 C   0  0  0  0  0  0  0  0  0  0  0  0
   -6.6892   -1.3383    0.0000 C   0  0  0  0  0  0  0  0  0  0  0  0
   -5.8892   -2.7239    0.0000 C   0  0  0  0  0  0  0  0  0  0  0  0
   -4.3242   -2.3912    0.0000 C   0  0  0  0  0  0  0  0  0  0  0  0
   -1.3856   -0.8000    0.0000 C   0  0  0  0  0  0  0  0  0  0  0  0
    0.0000    0.0000    0.0000 N   0  0  0  0  0  0  0  0  0  0  0  0
    0.0000    1.6000    0.0000 C   0  0  0  0  0  0  0  0  0  0  0  0
    1.3856    2.4000    0.0000 C   0  0  0  0  0  0  0  0  0  0  0  0
    1.3856    4.0000    0.0000 C   0  0  0  0  0  0  0  0  0  0  0  0
    2.7713    4.8000    0.0000 C   0  0  0  0  0  0  0  0  0  0  0  0
    4.1569    4.0000    0.0000 C   0  0  0  0  0  0  0  0  0  0  0  0
    4.1569    2.4000    0.0000 C   0  0  0  0  0  0  0  0  0  0  0  0
    2.7713    1.6000    0.0000 C   0  0  0  0  0  0  0  0  0  0  0  0
    1.3856   -0.8000    0.0000 C   0  0  0  0  0  0  0  0  0  0  0  0
    1.3856   -2.4000    0.0000 C   0  0  0  0  0  0  0  0  0  0  0  0
    2.7713   -3.2000    0.0000 C   0  0  0  0  0  0  0  0  0  0  0  0
    4.1569   -2.4000    0.0000 C   0  0  0  0  0  0  0  0  0  0  0  0
    4.1569   -0.8000    0.0000 C   0  0  0  0  0  0  0  0  0  0  0  0
    2.7713    0.0000    0.0000 C   0  0  0  0  0  0  0  0  0  0  0  0
  1  2  1  0  0  0  0
  1  6  1  0  0  0  0
  2  3  1  0  0  0  0
  3  4  1  0  0  0  0
  3  5  1  0  0  0  0
  6  7  1  0  0  0  0
  7  8  1  1  0  0  0
  7 13  1  0  0  0  0
  8  9  1  0  0  0  0
  8 12  1  0  0  0  0
  9 10  1  0  0  0  0
 10 11  1  0  0  0  0
 11 12  1  0  0  0  0
 13 14  1  0  0  0  0
 14 15  1  0  0  0  0
 14 22  1  0  0  0  0
 15 16  1  0  0  0  0
 16 17  1  0  0  0  0
 16 21  2  0  0  0  0
 17 18  2  0  0  0  0
 18 19  1  0  0  0  0
 19 20  2  0  0  0  0
 20 21  1  0  0  0  0
 22 23  1  0  0  0  0
 22 27  2  0  0  0  0
 23 24  2  0  0  0  0
 24 25  1  0  0  0  0
 25 26  2  0  0  0  0
 26 27  1  0  0  0  0
M  END
> <Acceptable>
false

> <IC50>
0.55

$$$$

Generated by Molecular Materials Informatics

 25 29  0  0  0  0  0  0  0  0999 V2000
   -6.3650   -0.3327    0.0000 O   0  0  0  0  0  0  0  0  0  0  0  0
   -6.5323   -1.9239    0.0000 C   0  0  0  0  0  0  0  0  0  0  0  0
   -5.0706   -2.5747    0.0000 O   0  0  0  0  0  0  0  0  0  0  0  0
   -4.0000   -1.3856    0.0000 C   0  0  0  0  0  0  0  0  0  0  0  0
   -2.4000   -1.3856    0.0000 C   0  0  0  0  0  0  0  0  0  0  0  0
   -1.6000    0.0000    0.0000 C   0  0  0  0  0  0  0  0  0  0  0  0
    0.0000    0.0000    0.0000 C   0  0  0  0  0  0  0  0  0  0  0  0
    0.8000    1.3856    0.0000 N   0  3  0  0  0  0  0  0  0  0  0  0
    2.4000    1.3856    0.0000 C   0  0  0  0  0  0  0  0  0  0  0  0
    3.2000    0.0000    0.0000 C   0  0  0  0  0  0  0  0  0  0  0  0
    2.4000   -1.3856    0.0000 C   0  0  0  0  0  0  0  0  0  0  0  0
    3.2000   -2.7713    0.0000 C   0  0  0  0  0  0  0  0  0  0  0  0
    4.8000   -2.7713    0.0000 C   0  0  0  0  0  0  0  0  0  0  0  0
    5.6000   -1.3856    0.0000 C   0  0  0  0  0  0  0  0  0  0  0  0
    7.2000   -1.3856    0.0000 O   0  0  0  0  0  0  0  0  0  0  0  0
    8.0000   -2.7713    0.0000 C   0  0  0  0  0  0  0  0  0  0  0  0
    4.8000    0.0000    0.0000 C   0  0  0  0  0  0  0  0  0  0  0  0
    5.6000    1.3856    0.0000 O   0  0  0  0  0  0  0  0  0  0  0  0
    7.2000    1.3856    0.0000 C   0  0  0  0  0  0  0  0  0  0  0  0
    0.8000   -1.3856    0.0000 C   0  0  0  0  0  0  0  0  0  0  0  0
    0.0000    2.7713    0.0000 C   0  0  0  0  0  0  0  0  0  0  0  0
   -1.6000    2.7713    0.0000 C   0  0  0  0  0  0  0  0  0  0  0  0
   -2.4000    1.3856    0.0000 C   0  0  0  0  0  0  0  0  0  0  0  0
   -4.0000    1.3856    0.0000 C   0  0  0  0  0  0  0  0  0  0  0  0
   -4.8000    0.0000    0.0000 C   0  0  0  0  0  0  0  0  0  0  0  0
  1  2  1  0  0  0  0
  1 25  1  0  0  0  0
  2  3  1  0  0  0  0
  3  4  1  0  0  0  0
  4  5  1  0  0  0  0
  4 25  2  0  0  0  0
  5  6  2  0  0  0  0
  6  7  1  0  0  0  0
  6 23  1  0  0  0  0
  7  8  1  0  0  0  0
  7 20  2  0  0  0  0
  8  9  2  0  0  0  0
  8 21  1  0  0  0  0
  9 10  1  0  0  0  0
 10 11  1  0  0  0  0
 10 17  2  0  0  0  0
 11 12  2  0  0  0  0
 11 20  1  0  0  0  0
 12 13  1  0  0  0  0
 13 14  2  0  0  0  0
 14 15  1  0  0  0  0
 14 17  1  0  0  0  0
 15 16  1  0  0  0  0
 17 18  1  0  0  0  0
 18 19  1  0  0  0  0
 21 22  1  0  0  0  0
 22 23  1  0  0  0  0
 23 24  2  0  0  0  0
 24 25  1  0  0  0  0
M  CHG  1   8   1
M  END
> <Acceptable>
true

> <IC50>
66.069

$$$$

Generated by Molecular Materials Informatics

 21 23  0  0  0  0  0  0  0  0999 V2000
    4.2372   -0.4031    0.0000 N   0  0  0  0  0  0  0  0  0  0  0  0
    3.6756    1.4986    0.0000 N   0  0  0  0  0  0  0  0  0  0  0  0
    0.0000    0.0000    0.0000 C   0  0  0  0  0  0  0  0  0  0  0  0
    1.4964   -0.5663    0.0000 C   0  0  0  0  0  0  0  0  0  0  0  0
    1.2822    0.5073    0.0000 C   0  0  0  0  0  0  0  0  0  0  0  0
   -0.8103    1.3796    0.0000 C   0  0  0  0  0  0  0  0  0  0  0  0
   -0.7896   -1.3916    0.0000 C   0  0  0  0  0  0  0  0  0  0  0  0
    3.1297   -1.6159    0.0000 C   0  0  0  0  0  0  0  0  0  0  0  0
    2.8438   -0.5337    0.0000 C   0  0  0  0  0  0  0  0  0  0  0  0
    2.4579    1.0569    0.0000 C   0  0  0  0  0  0  0  0  0  0  0  0
    2.1863    2.0705    0.0000 C   0  0  0  0  0  0  0  0  0  0  0  0
   -2.4103    1.3676    0.0000 C   0  0  0  0  0  0  0  0  0  0  0  0
   -2.3896   -1.4036    0.0000 C   0  0  0  0  0  0  0  0  0  0  0  0
   -3.1999   -0.0239    0.0000 C   0  0  0  0  0  0  0  0  0  0  0  0
    5.8342   -0.5015    0.0000 C   0  0  0  0  0  0  0  0  0  0  0  0
    5.2755    1.4836    0.0000 C   0  0  0  0  0  0  0  0  0  0  0  0
    6.0885    2.8617    0.0000 C   0  0  0  0  0  0  0  0  0  0  0  0
    6.7179    0.8324    0.0000 C   0  0  0  0  0  0  0  0  0  0  0  0
    6.5475   -1.9337    0.0000 C   0  0  0  0  0  0  0  0  0  0  0  0
    5.3015    4.2547    0.0000 C   0  0  0  0  0  0  0  0  0  0  0  0
    7.6884    2.8467    0.0000 C   0  0  0  0  0  0  0  0  0  0  0  0
  1  8  1  0  0  0  0
  1  9  1  0  0  0  0
  1 15  1  6  0  0  0
  2 10  1  0  0  0  0
  2 11  1  0  0  0  0
  2 16  1  1  0  0  0
  3  4  1  0  0  0  0
  3  5  1  0  0  0  0
  3  6  1  0  0  0  0
  3  7  1  1  0  0  0
  4  8  1  0  0  0  0
  4 10  1  6  0  0  0
  5  9  1  1  0  0  0
  5 11  1  0  0  0  0
  6 12  1  0  0  0  0
  7 13  1  0  0  0  0
 12 14  1  0  0  0  0
 13 14  1  0  0  0  0
 15 18  1  0  0  0  0
 15 19  1  0  0  0  0
 16 17  1  0  0  0  0
 17 20  1  0  0  0  0
 17 21  1  0  0  0  0
M  END
> <Acceptable>
true

> <IC50>
62.7

$$$$

Generated by Molecular Materials Informatics

 22 23  0  0  0  0  0  0  0  0999 V2000
    4.1569    2.4000    0.0000 O   0  0  0  0  0  0  0  0  0  0  0  0
    4.1569    0.8000    0.0000 C   0  0  0  0  0  0  0  0  0  0  0  0
    2.7713    0.0000    0.0000 C   0  0  0  0  0  0  0  0  0  0  0  0
    1.3856    0.8000    0.0000 O   0  0  0  0  0  0  0  0  0  0  0  0
    0.0000    0.0000    0.0000 C   0  0  0  0  0  0  0  0  0  0  0  0
    0.0000   -1.6000    0.0000 C   0  0  0  0  0  0  0  0  0  0  0  0
   -1.3856   -2.4000    0.0000 C   0  0  0  0  0  0  0  0  0  0  0  0
   -2.7713   -1.6000    0.0000 C   0  0  0  0  0  0  0  0  0  0  0  0
   -2.7713    0.0000    0.0000 C   0  0  0  0  0  0  0  0  0  0  0  0
   -1.3856    0.8000    0.0000 C   0  0  0  0  0  0  0  0  0  0  0  0
   -4.1569   -2.4000    0.0000 C   0  0  0  0  0  0  0  0  0  0  0  0
   -5.5426   -1.6000    0.0000 C   0  0  0  0  0  0  0  0  0  0  0  0
   -6.9282   -2.4000    0.0000 O   0  0  0  0  0  0  0  0  0  0  0  0
   -8.3138   -1.6000    0.0000 C   0  0  0  0  0  0  0  0  0  0  0  0
   -9.6995   -2.4000    0.0000 C   0  0  0  0  0  0  0  0  0  0  0  0
  -10.4995   -3.7856    0.0000 C   0  0  0  0  0  0  0  0  0  0  0  0
  -11.2995   -2.4000    0.0000 C   0  0  0  0  0  0  0  0  0  0  0  0
    5.5426    0.0000    0.0000 C   0  0  0  0  0  0  0  0  0  0  0  0
    6.9282    0.8000    0.0000 N   0  0  0  0  0  0  0  0  0  0  0  0
    8.3138    0.0000    0.0000 C   0  0  0  0  0  0  0  0  0  0  0  0
    8.3138   -1.6000    0.0000 C   0  0  0  0  0  0  0  0  0  0  0  0
    9.6995    0.8000    0.0000 C   0  0  0  0  0  0  0  0  0  0  0  0
  2  1  1  1  0  0  0
  2  3  1  0  0  0  0
  2 18  1  0  0  0  0
  3  4  1  0  0  0  0
  4  5  1  0  0  0  0
  5  6  1  0  0  0  0
  5 10  2  0  0  0  0
  6  7  2  0  0  0  0
  7  8  1  0  0  0  0
  8  9  2  0  0  0  0
  8 11  1  0  0  0  0
  9 10  1  0  0  0  0
 11 12  1  0  0  0  0
 12 13  1  0  0  0  0
 13 14  1  0  0  0  0
 14 15  1  0  0  0  0
 15 16  1  0  0  0  0
 15 17  1  0  0  0  0
 16 17  1  0  0  0  0
 18 19  1  0  0  0  0
 19 20  1  0  0  0  0
 20 21  1  0  0  0  0
 20 22  1  0  0  0  0
M  END
> <Acceptable>
true

> <IC50>
N/A

$$$$

Generated by Molecular Materials Informatics

 26 28  0  0  0  0  0  0  0  0999 V2000
   -8.3138   -1.6000    0.0000 O   0  0  0  0  0  0  0  0  0  0  0  0
   -8.3138    0.0000    0.0000 C   0  0  0  0  0  0  0  0  0  0  0  0
   -9.6995    0.8000    0.0000 O   0  0  0  0  0  0  0  0  0  0  0  0
   -6.9282    0.8000    0.0000 C   0  0  0  0  0  0  0  0  0  0  0  0
   -5.5426    0.0000    0.0000 C   0  0  0  0  0  0  0  0  0  0  0  0
   -4.1569    0.8000    0.0000 C   0  0  0  0  0  0  0  0  0  0  0  0
   -4.1569    2.4000    0.0000 C   0  0  0  0  0  0  0  0  0  0  0  0
   -5.5426    3.2000    0.0000 C   0  0  0  0  0  0  0  0  0  0  0  0
   -6.9282    2.4000    0.0000 C   0  0  0  0  0  0  0  0  0  0  0  0
   -2.7713    3.2000    0.0000 C   0  0  0  0  0  0  0  0  0  0  0  0
   -2.7713    4.8000    0.0000 C   0  0  0  0  0  0  0  0  0  0  0  0
   -1.3856    2.4000    0.0000 C   0  0  0  0  0  0  0  0  0  0  0  0
   -1.3856    0.8000    0.0000 C   0  0  0  0  0  0  0  0  0  0  0  0
    0.0000    0.0000    0.0000 C   0  0  0  0  0  0  0  0  0  0  0  0
    1.3856    0.8000    0.0000 C   0  0  0  0  0  0  0  0  0  0  0  0
    1.3856    2.4000    0.0000 C   0  0  0  0  0  0  0  0  0  0  0  0
    0.0000    3.2000    0.0000 C   0  0  0  0  0  0  0  0  0  0  0  0
    0.0000    4.8000    0.0000 C   0  0  0  0  0  0  0  0  0  0  0  0
    2.7713    0.0000    0.0000 C   0  0  0  0  0  0  0  0  0  0  0  0
    4.3470   -0.2778    0.0000 C   0  0  0  0  0  0  0  0  0  0  0  0
    3.3185    1.5035    0.0000 C   0  0  0  0  0  0  0  0  0  0  0  0
    2.7713   -1.6000    0.0000 C   0  0  0  0  0  0  0  0  0  0  0  0
    1.3856   -2.4000    0.0000 C   0  0  0  0  0  0  0  0  0  0  0  0
    0.0000   -1.6000    0.0000 C   0  0  0  0  0  0  0  0  0  0  0  0
   -1.5757   -1.3222    0.0000 C   0  0  0  0  0  0  0  0  0  0  0  0
   -0.5472   -3.1035    0.0000 C   0  0  0  0  0  0  0  0  0  0  0  0
  1  2  2  0  0  0  0
  2  3  1  0  0  0  0
  2  4  1  0  0  0  0
  4  5  1  0  0  0  0
  4  9  2  0  0  0  0
  5  6  2  0  0  0  0
  6  7  1  0  0  0  0
  7  8  2  0  0  0  0
  7 10  1  0  0  0  0
  8  9  1  0  0  0  0
 10 11  2  0  0  0  0
 10 12  1  0  0  0  0
 12 13  1  0  0  0  0
 12 17  2  0  0  0  0
 13 14  2  0  0  0  0
 14 15  1  0  0  0  0
 14 24  1  0  0  0  0
 15 16  2  0  0  0  0
 15 19  1  0  0  0  0
 16 17  1  0  0  0  0
 17 18  1  0  0  0  0
 19 20  1  0  0  0  0
 19 21  1  0  0  0  0
 19 22  1  0  0  0  0
 22 23  1  0  0  0  0
 23 24  1  0  0  0  0
 24 25  1  0  0  0  0
 24 26  1  0  0  0  0
M  END
> <Acceptable>
true

> <IC50>
N/A

$$$$

Generated by Molecular Materials Informatics

 29 30  0  0  0  0  0  0  0  0999 V2000
   -1.3856    0.8000    0.0000 S   0  0  0  0  0  0  0  0  0  0  0  0
   -0.5856    2.1856    0.0000 O   0  0  0  0  0  0  0  0  0  0  0  0
   -2.1856   -0.5856    0.0000 O   0  0  0  0  0  0  0  0  0  0  0  0
   -2.7713    1.6000    0.0000 C   0  0  0  0  0  0  0  0  0  0  0  0
   -2.7713    3.2000    0.0000 C   0  0  0  0  0  0  0  0  0  0  0  0
   -4.1569    4.0000    0.0000 C   0  0  0  0  0  0  0  0  0  0  0  0
   -5.5426    3.2000    0.0000 C   0  0  0  0  0  0  0  0  0  0  0  0
   -6.9282    4.0000    0.0000 F   0  0  0  0  0  0  0  0  0  0  0  0
   -5.5426    1.6000    0.0000 C   0  0  0  0  0  0  0  0  0  0  0  0
   -4.1569    0.8000    0.0000 C   0  0  0  0  0  0  0  0  0  0  0  0
    0.0000    0.0000    0.0000 C   0  0  0  0  0  0  0  0  0  0  0  0
    0.0000   -1.6000    0.0000 C   0  0  0  0  0  0  0  0  0  0  0  0
   -1.3856   -2.4000    0.0000 C   0  0  0  0  0  0  0  0  0  0  0  0
    1.3856   -2.4000    0.0000 C   0  0  0  0  0  0  0  0  0  0  0  0
    2.7713   -1.6000    0.0000 C   0  0  0  0  0  0  0  0  0  0  0  0
    2.7713    0.0000    0.0000 C   0  0  0  0  0  0  0  0  0  0  0  0
    4.1569    0.8000    0.0000 N   0  0  0  0  0  0  0  0  0  0  0  0
    5.5426    0.0000    0.0000 C   0  0  0  0  0  0  0  0  0  0  0  0
    5.5426   -1.6000    0.0000 O   0  0  0  0  0  0  0  0  0  0  0  0
    6.9282    0.8000    0.0000 C   0  0  0  0  0  0  0  0  0  0  0  0
    6.9282    2.4000    0.0000 O   0  0  0  0  0  0  0  0  0  0  0  0
    8.3138    0.0000    0.0000 C   0  0  0  0  0  0  0  0  0  0  0  0
    1.3856    0.8000    0.0000 C   0  0  0  0  0  0  0  0  0  0  0  0
    1.3856    2.4000    0.0000 C   0  0  0  0  0  0  0  0  0  0  0  0
    1.3856    4.0000    0.0000 N   0  0  0  0  0  0  0  0  0  0  0  0
    1.3856   -4.0000    0.0000 C   0  0  0  0  0  0  0  0  0  0  0  0
    0.0000   -4.8000    0.0000 F   0  0  0  0  0  0  0  0  0  0  0  0
    2.7713   -4.8000    0.0000 F   0  0  0  0  0  0  0  0  0  0  0  0
    1.3856   -5.6000    0.0000 F   0  0  0  0  0  0  0  0  0  0  0  0
  1  2  2  0  0  0  0
  1  3  2  0  0  0  0
  1  4  1  0  0  0  0
  1 11  1  0  0  0  0
  4  5  1  0  0  0  0
  4 10  2  0  0  0  0
  5  6  2  0  0  0  0
  6  7  1  0  0  0  0
  7  8  1  0  0  0  0
  7  9  2  0  0  0  0
  9 10  1  0  0  0  0
 11 12  1  0  0  0  0
 11 23  2  0  0  0  0
 12 13  1  0  0  0  0
 12 14  2  0  0  0  0
 14 15  1  0  0  0  0
 14 26  1  0  0  0  0
 15 16  2  0  0  0  0
 16 17  1  0  0  0  0
 16 23  1  0  0  0  0
 17 18  1  0  0  0  0
 18 19  2  0  0  0  0
 18 20  1  0  0  0  0
 20 21  1  6  0  0  0
 20 22  1  0  0  0  0
 23 24  1  0  0  0  0
 24 25  3  0  0  0  0
 26 27  1  0  0  0  0
 26 28  1  0  0  0  0
 26 29  1  0  0  0  0
M  END
> <Acceptable>
true

> <IC50>
N/A

$$$$

Generated by Molecular Materials Informatics

 13 15  0  0  0  0  0  0  0  0999 V2000
    0.0000    0.0000    0.0000 C   0  0  0  0  0  0  0  0  0  0  0  0
   -1.5217    0.4944    0.0000 C   0  0  0  0  0  0  0  0  0  0  0  0
    1.5912    0.1672    0.0000 C   0  0  0  0  0  0  0  0  0  0  0  0
   -0.3327    1.5650    0.0000 C   0  0  0  0  0  0  0  0  0  0  0  0
    0.0000   -1.6000    0.0000 C   0  0  0  0  0  0  0  0  0  0  0  0
   -2.4621   -0.8000    0.0000 C   0  0  0  0  0  0  0  0  0  0  0  0
    2.2420    1.6289    0.0000 C   0  0  0  0  0  0  0  0  0  0  0  0
    2.5317   -1.1272    0.0000 C   0  0  0  0  0  0  0  0  0  0  0  0
   -1.5217   -2.0944    0.0000 N   0  0  0  0  0  0  0  0  0  0  0  0
    3.8332    1.7962    0.0000 C   0  0  0  0  0  0  0  0  0  0  0  0
    4.1229   -0.9599    0.0000 C   0  0  0  0  0  0  0  0  0  0  0  0
    4.7737    0.5017    0.0000 C   0  0  0  0  0  0  0  0  0  0  0  0
    6.3649    0.6690    0.0000 C   0  0  0  0  0  0  0  0  0  0  0  0
  1  2  1  0  0  0  0
  1  3  1  6  0  0  0
  1  4  1  0  0  0  0
  1  5  1  0  0  0  0
  2  4  1  1  0  0  0
  2  6  1  0  0  0  0
  3  7  2  0  0  0  0
  3  8  1  0  0  0  0
  5  9  1  0  0  0  0
  6  9  1  0  0  0  0
  7 10  1  0  0  0  0
  8 11  2  0  0  0  0
 10 12  2  0  0  0  0
 11 12  1  0  0  0  0
 12 13  1  0  0  0  0
M  END
> <Acceptable>
true

> <IC50>
45.2

$$$$

Generated by Molecular Materials Informatics

 23 26  0  0  0  0  0  0  0  0999 V2000
   -1.1816    1.0788    0.0000 O   0  0  0  0  0  0  0  0  0  0  0  0
    0.0000    0.0000    0.0000 C   0  0  0  0  0  0  0  0  0  0  0  0
    1.1816   -1.0788    0.0000 C   0  0  0  0  0  0  0  0  0  0  0  0
    2.7067   -0.5949    0.0000 C   0  0  0  0  0  0  0  0  0  0  0  0
    3.8883   -1.6737    0.0000 N   0  0  0  0  0  0  0  0  0  0  0  0
    5.4133   -1.1898    0.0000 C   0  0  0  0  0  0  0  0  0  0  0  0
    6.5949   -2.2686    0.0000 C   0  0  0  0  0  0  0  0  0  0  0  0
    6.2515   -3.8313    0.0000 C   0  0  0  0  0  0  0  0  0  0  0  0
    4.7264   -4.3152    0.0000 C   0  0  0  0  0  0  0  0  0  0  0  0
    3.5448   -3.2364    0.0000 C   0  0  0  0  0  0  0  0  0  0  0  0
   -1.0788   -1.1816    0.0000 C   0  0  0  0  0  0  0  0  0  0  0  0
   -0.5949   -2.7067    0.0000 C   0  0  0  0  0  0  0  0  0  0  0  0
   -1.6737   -3.8883    0.0000 C   0  0  0  0  0  0  0  0  0  0  0  0
   -3.2364   -3.5448    0.0000 C   0  0  0  0  0  0  0  0  0  0  0  0
   -3.7203   -2.0197    0.0000 C   0  0  0  0  0  0  0  0  0  0  0  0
   -2.6415   -0.8381    0.0000 C   0  0  0  0  0  0  0  0  0  0  0  0
    1.0788    1.1816    0.0000 C   0  0  0  0  0  0  0  0  0  0  0  0
    2.7200    1.2801    0.0000 C   0  0  0  0  0  0  0  0  0  0  0  0
    2.7533    2.8892    0.0000 C   0  0  0  0  0  0  0  0  0  0  0  0
    1.3071    3.7986    0.0000 C   0  0  0  0  0  0  0  0  0  0  0  0
   -0.1955    3.6563    0.0000 C   0  0  0  0  0  0  0  0  0  0  0  0
    1.0339    2.6323    0.0000 C   0  0  0  0  0  0  0  0  0  0  0  0
    3.8435    3.9507    0.0000 C   0  0  0  0  0  0  0  0  0  0  0  0
  2  1  1  1  0  0  0
  2  3  1  0  0  0  0
  2 11  1  0  0  0  0
  2 17  1  0  0  0  0
  3  4  1  0  0  0  0
  4  5  1  0  0  0  0
  5  6  1  0  0  0  0
  5 10  1  0  0  0  0
  6  7  1  0  0  0  0
  7  8  1  0  0  0  0
  8  9  1  0  0  0  0
  9 10  1  0  0  0  0
 11 12  1  0  0  0  0
 11 16  2  0  0  0  0
 12 13  2  0  0  0  0
 13 14  1  0  0  0  0
 14 15  2  0  0  0  0
 15 16  1  0  0  0  0
 17 18  1  1  0  0  0
 17 22  1  0  0  0  0
 18 19  1  0  0  0  0
 19 20  1  6  0  0  0
 19 23  1  0  0  0  0
 20 21  2  0  0  0  0
 21 22  1  0  0  0  0
 22 23  1  0  0  0  0
M  END
> <Acceptable>
true

> <IC50>
N/A

$$$$

Generated by Molecular Materials Informatics

 23 23  0  0  0  0  0  0  0  0999 V2000
    4.1569    2.4000    0.0000 O   0  0  0  0  0  0  0  0  0  0  0  0
    4.1569    0.8000    0.0000 C   0  0  0  0  0  0  0  0  0  0  0  0
    2.7713    0.0000    0.0000 C   0  0  0  0  0  0  0  0  0  0  0  0
    1.3856    0.8000    0.0000 O   0  0  0  0  0  0  0  0  0  0  0  0
    0.0000    0.0000    0.0000 C   0  0  0  0  0  0  0  0  0  0  0  0
    0.0000   -1.6000    0.0000 C   0  0  0  0  0  0  0  0  0  0  0  0
   -1.3856   -2.4000    0.0000 C   0  0  0  0  0  0  0  0  0  0  0  0
   -2.7713   -1.6000    0.0000 C   0  0  0  0  0  0  0  0  0  0  0  0
   -2.7713    0.0000    0.0000 C   0  0  0  0  0  0  0  0  0  0  0  0
   -1.3856    0.8000    0.0000 C   0  0  0  0  0  0  0  0  0  0  0  0
   -4.1569   -2.4000    0.0000 C   0  0  0  0  0  0  0  0  0  0  0  0
   -5.5426   -1.6000    0.0000 O   0  0  0  0  0  0  0  0  0  0  0  0
   -6.9282   -2.4000    0.0000 C   0  0  0  0  0  0  0  0  0  0  0  0
   -8.3138   -1.6000    0.0000 C   0  0  0  0  0  0  0  0  0  0  0  0
   -9.6995   -2.4000    0.0000 O   0  0  0  0  0  0  0  0  0  0  0  0
  -11.0851   -1.6000    0.0000 C   0  0  0  0  0  0  0  0  0  0  0  0
  -11.0851    0.0000    0.0000 C   0  0  0  0  0  0  0  0  0  0  0  0
  -12.4708   -2.4000    0.0000 C   0  0  0  0  0  0  0  0  0  0  0  0
    5.5426    0.0000    0.0000 C   0  0  0  0  0  0  0  0  0  0  0  0
    6.9282    0.8000    0.0000 N   0  0  0  0  0  0  0  0  0  0  0  0
    8.3138    0.0000    0.0000 C   0  0  0  0  0  0  0  0  0  0  0  0
    8.3138   -1.6000    0.0000 C   0  0  0  0  0  0  0  0  0  0  0  0
    9.6995    0.8000    0.0000 C   0  0  0  0  0  0  0  0  0  0  0  0
  2  1  1  1  0  0  0
  2  3  1  0  0  0  0
  2 19  1  0  0  0  0
  3  4  1  0  0  0  0
  4  5  1  0  0  0  0
  5  6  1  0  0  0  0
  5 10  2  0  0  0  0
  6  7  2  0  0  0  0
  7  8  1  0  0  0  0
  8  9  2  0  0  0  0
  8 11  1  0  0  0  0
  9 10  1  0  0  0  0
 11 12  1  0  0  0  0
 12 13  1  0  0  0  0
 13 14  1  0  0  0  0
 14 15  1  0  0  0  0
 15 16  1  0  0  0  0
 16 17  1  0  0  0  0
 16 18  1  0  0  0  0
 19 20  1  0  0  0  0
 20 21  1  0  0  0  0
 21 22  1  0  0  0  0
 21 23  1  0  0  0  0
M  END
> <Acceptable>
true

> <IC50>
N/A

$$$$

Generated by Molecular Materials Informatics

 29 32  0  0  0  0  0  0  0  0999 V2000
   -5.6653    3.1634    0.0000 C   0  0  0  0  0  0  0  0  0  0  0  0
   -4.2036    2.5126    0.0000 C   0  0  0  0  0  0  0  0  0  0  0  0
   -4.0363    0.9214    0.0000 C   0  0  0  0  0  0  0  0  0  0  0  0
   -5.3308   -0.0191    0.0000 C   0  0  0  0  0  0  0  0  0  0  0  0
   -6.7924    0.6317    0.0000 C   0  0  0  0  0  0  0  0  0  0  0  0
   -6.9597    2.2229    0.0000 C   0  0  0  0  0  0  0  0  0  0  0  0
   -8.0869   -0.3087    0.0000 F   0  0  0  0  0  0  0  0  0  0  0  0
   -2.9092    3.4531    0.0000 F   0  0  0  0  0  0  0  0  0  0  0  0
   -2.5747    0.2706    0.0000 C   0  0  0  0  0  0  0  0  0  0  0  0
   -1.1890    1.0706    0.0000 C   0  0  0  0  0  0  0  0  0  0  0  0
    0.0000    0.0000    0.0000 N   0  0  0  0  0  0  0  0  0  0  0  0
   -2.2420   -1.2944    0.0000 C   0  0  0  0  0  0  0  0  0  0  0  0
   -0.6508   -1.4617    0.0000 C   0  0  0  0  0  0  0  0  0  0  0  0
    1.5650    0.3327    0.0000 C   0  0  0  0  0  0  0  0  0  0  0  0
    2.0595    1.8543    0.0000 N   0  0  0  0  0  0  0  0  0  0  0  0
    2.6356   -0.8564    0.0000 O   0  0  0  0  0  0  0  0  0  0  0  0
    0.1492   -2.8473    0.0000 C   0  0  0  0  0  0  0  0  0  0  0  0
    1.7492   -2.8473    0.0000 C   0  0  0  0  0  0  0  0  0  0  0  0
    2.5492   -4.2330    0.0000 C   0  0  0  0  0  0  0  0  0  0  0  0
    1.7492   -5.6186    0.0000 C   0  0  0  0  0  0  0  0  0  0  0  0
    0.1492   -5.6186    0.0000 C   0  0  0  0  0  0  0  0  0  0  0  0
   -0.6508   -4.2330    0.0000 C   0  0  0  0  0  0  0  0  0  0  0  0
    3.6245    2.1870    0.0000 C   0  0  0  0  0  0  0  0  0  0  0  0
    0.9889    3.0434    0.0000 C   0  0  0  0  0  0  0  0  0  0  0  0
    4.1189    3.7087    0.0000 C   0  0  0  0  0  0  0  0  0  0  0  0
    5.6840    4.0414    0.0000 C   0  0  0  0  0  0  0  0  0  0  0  0
    6.7546    2.8523    0.0000 N   0  0  0  0  0  0  0  0  0  0  0  0
    6.2601    1.3306    0.0000 C   0  0  0  0  0  0  0  0  0  0  0  0
    4.6951    0.9980    0.0000 C   0  0  0  0  0  0  0  0  0  0  0  0
  1  2  1  0  0  0  0
  1  6  2  0  0  0  0
  2  3  2  0  0  0  0
  2  8  1  0  0  0  0
  3  4  1  0  0  0  0
  3  9  1  0  0  0  0
  4  5  2  0  0  0  0
  5  6  1  0  0  0  0
  5  7  1  0  0  0  0
  9 10  1  0  0  0  0
  9 12  2  0  0  0  0
 10 11  1  0  0  0  0
 11 13  1  0  0  0  0
 11 14  1  0  0  0  0
 12 13  1  0  0  0  0
 13 17  1  1  0  0  0
 14 15  1  0  0  0  0
 14 16  2  0  0  0  0
 15 23  1  0  0  0  0
 15 24  1  0  0  0  0
 17 18  1  0  0  0  0
 17 22  2  0  0  0  0
 18 19  2  0  0  0  0
 19 20  1  0  0  0  0
 20 21  2  0  0  0  0
 21 22  1  0  0  0  0
 23 25  1  0  0  0  0
 23 29  1  0  0  0  0
 25 26  1  0  0  0  0
 26 27  1  0  0  0  0
 27 28  1  0  0  0  0
 28 29  1  0  0  0  0
M  END
> <Acceptable>
false

> <IC50>
1.3

$$$$

Generated by Molecular Materials Informatics

 32 35  0  0  0  0  0  0  0  0999 V2000
   -5.6653    3.1634    0.0000 C   0  0  0  0  0  0  0  0  0  0  0  0
   -4.2036    2.5126    0.0000 C   0  0  0  0  0  0  0  0  0  0  0  0
   -4.0363    0.9214    0.0000 C   0  0  0  0  0  0  0  0  0  0  0  0
   -5.3308   -0.0191    0.0000 C   0  0  0  0  0  0  0  0  0  0  0  0
   -6.7924    0.6317    0.0000 C   0  0  0  0  0  0  0  0  0  0  0  0
   -6.9597    2.2229    0.0000 C   0  0  0  0  0  0  0  0  0  0  0  0
   -8.0869   -0.3087    0.0000 F   0  0  0  0  0  0  0  0  0  0  0  0
   -2.9092    3.4531    0.0000 F   0  0  0  0  0  0  0  0  0  0  0  0
   -2.5747    0.2706    0.0000 C   0  0  0  0  0  0  0  0  0  0  0  0
   -1.1890    1.0706    0.0000 C   0  0  0  0  0  0  0  0  0  0  0  0
    0.0000    0.0000    0.0000 N   0  0  0  0  0  0  0  0  0  0  0  0
   -2.2420   -1.2944    0.0000 C   0  0  0  0  0  0  0  0  0  0  0  0
   -0.6508   -1.4617    0.0000 C   0  0  0  0  0  0  0  0  0  0  0  0
    1.5650    0.3327    0.0000 C   0  0  0  0  0  0  0  0  0  0  0  0
    2.0595    1.8543    0.0000 N   0  0  0  0  0  0  0  0  0  0  0  0
    2.6356   -0.8564    0.0000 O   0  0  0  0  0  0  0  0  0  0  0  0
    0.1492   -2.8473    0.0000 C   0  0  0  0  0  0  0  0  0  0  0  0
    1.7492   -2.8473    0.0000 C   0  0  0  0  0  0  0  0  0  0  0  0
    2.5492   -4.2330    0.0000 C   0  0  0  0  0  0  0  0  0  0  0  0
    1.7492   -5.6186    0.0000 C   0  0  0  0  0  0  0  0  0  0  0  0
    0.1492   -5.6186    0.0000 C   0  0  0  0  0  0  0  0  0  0  0  0
   -0.6508   -4.2330    0.0000 C   0  0  0  0  0  0  0  0  0  0  0  0
    3.6245    2.1870    0.0000 C   0  0  0  0  0  0  0  0  0  0  0  0
    0.9889    3.0434    0.0000 C   0  0  0  0  0  0  0  0  0  0  0  0
    4.1189    3.7087    0.0000 C   0  0  0  0  0  0  0  0  0  0  0  0
    5.6840    4.0414    0.0000 C   0  0  0  0  0  0  0  0  0  0  0  0
    6.7546    2.8523    0.0000 N   0  0  0  0  0  0  0  0  0  0  0  0
    6.2601    1.3306    0.0000 C   0  0  0  0  0  0  0  0  0  0  0  0
    4.6951    0.9980    0.0000 C   0  0  0  0  0  0  0  0  0  0  0  0
    8.3196    3.1850    0.0000 C   0  0  0  0  0  0  0  0  0  0  0  0
    9.3902    1.9960    0.0000 C   0  0  0  0  0  0  0  0  0  0  0  0
    8.8140    4.7067    0.0000 O   0  0  0  0  0  0  0  0  0  0  0  0
  1  2  1  0  0  0  0
  1  6  2  0  0  0  0
  2  3  2  0  0  0  0
  2  8  1  0  0  0  0
  3  4  1  0  0  0  0
  3  9  1  0  0  0  0
  4  5  2  0  0  0  0
  5  6  1  0  0  0  0
  5  7  1  0  0  0  0
  9 10  1  0  0  0  0
  9 12  2  0  0  0  0
 10 11  1  0  0  0  0
 11 13  1  0  0  0  0
 11 14  1  0  0  0  0
 12 13  1  0  0  0  0
 13 17  1  1  0  0  0
 14 15  1  0  0  0  0
 14 16  2  0  0  0  0
 23 15  1  1  0  0  0
 15 24  1  0  0  0  0
 17 18  1  0  0  0  0
 17 22  2  0  0  0  0
 18 19  2  0  0  0  0
 19 20  1  0  0  0  0
 20 21  2  0  0  0  0
 21 22  1  0  0  0  0
 23 25  1  0  0  0  0
 23 29  1  0  0  0  0
 25 26  1  0  0  0  0
 26 27  1  0  0  0  0
 27 28  1  0  0  0  0
 27 30  1  6  0  0  0
 28 29  1  0  0  0  0
 30 31  1  0  0  0  0
 30 32  2  0  0  0  0
M  END
> <Acceptable>
false

> <IC50>
>10

$$$$

Generated by Molecular Materials Informatics

 27 29  0  0  0  0  0  0  0  0999 V2000
   -5.0145    4.6251    0.0000 C   0  0  0  0  0  0  0  0  0  0  0  0
   -3.5528    3.9743    0.0000 C   0  0  0  0  0  0  0  0  0  0  0  0
   -3.3856    2.3831    0.0000 C   0  0  0  0  0  0  0  0  0  0  0  0
   -4.6800    1.4426    0.0000 C   0  0  0  0  0  0  0  0  0  0  0  0
   -6.1417    2.0934    0.0000 C   0  0  0  0  0  0  0  0  0  0  0  0
   -6.3089    3.6846    0.0000 C   0  0  0  0  0  0  0  0  0  0  0  0
   -7.4361    1.1529    0.0000 F   0  0  0  0  0  0  0  0  0  0  0  0
   -2.2584    4.9148    0.0000 F   0  0  0  0  0  0  0  0  0  0  0  0
   -1.9239    1.7323    0.0000 C   0  0  0  0  0  0  0  0  0  0  0  0
   -0.5383    2.5323    0.0000 C   0  0  0  0  0  0  0  0  0  0  0  0
    0.6508    1.4617    0.0000 N   0  0  0  0  0  0  0  0  0  0  0  0
   -1.5912    0.1672    0.0000 C   0  0  0  0  0  0  0  0  0  0  0  0
    0.0000    0.0000    0.0000 C   0  0  0  0  0  0  0  0  0  0  0  0
    2.2158    1.7943    0.0000 C   0  0  0  0  0  0  0  0  0  0  0  0
    3.2864    0.6053    0.0000 O   0  0  0  0  0  0  0  0  0  0  0  0
    0.8000   -1.3856    0.0000 C   0  0  0  0  0  0  0  0  0  0  0  0
    2.4000   -1.3856    0.0000 C   0  0  0  0  0  0  0  0  0  0  0  0
    3.2000   -2.7713    0.0000 C   0  0  0  0  0  0  0  0  0  0  0  0
    2.4000   -4.1569    0.0000 C   0  0  0  0  0  0  0  0  0  0  0  0
    0.8000   -4.1569    0.0000 C   0  0  0  0  0  0  0  0  0  0  0  0
    0.0000   -2.7713    0.0000 C   0  0  0  0  0  0  0  0  0  0  0  0
    2.7102    3.3160    0.0000 N   0  0  0  0  0  0  0  0  0  0  0  0
    1.6396    4.5051    0.0000 C   0  0  0  0  0  0  0  0  0  0  0  0
    4.2753    3.6487    0.0000 C   0  0  0  0  0  0  0  0  0  0  0  0
    4.7697    5.1704    0.0000 C   0  0  0  0  0  0  0  0  0  0  0  0
    6.3347    5.5030    0.0000 C   0  0  0  0  0  0  0  0  0  0  0  0
    6.8292    7.0247    0.0000 N   0  0  0  0  0  0  0  0  0  0  0  0
  1  2  1  0  0  0  0
  1  6  2  0  0  0  0
  2  3  2  0  0  0  0
  2  8  1  0  0  0  0
  3  4  1  0  0  0  0
  3  9  1  0  0  0  0
  4  5  2  0  0  0  0
  5  6  1  0  0  0  0
  5  7  1  0  0  0  0
  9 10  1  0  0  0  0
  9 12  2  0  0  0  0
 10 11  1  0  0  0  0
 11 13  1  0  0  0  0
 11 14  1  0  0  0  0
 12 13  1  0  0  0  0
 13 16  1  1  0  0  0
 14 15  2  0  0  0  0
 14 22  1  0  0  0  0
 16 17  1  0  0  0  0
 16 21  2  0  0  0  0
 17 18  2  0  0  0  0
 18 19  1  0  0  0  0
 19 20  2  0  0  0  0
 20 21  1  0  0  0  0
 22 23  1  0  0  0  0
 22 24  1  0  0  0  0
 24 25  1  0  0  0  0
 25 26  1  0  0  0  0
 26 27  1  0  0  0  0
M  END
> <Acceptable>
false

> <IC50>
1.3

$$$$

Generated by Molecular Materials Informatics

 26 28  0  0  0  0  0  0  0  0999 V2000
   -5.6653    3.1634    0.0000 C   0  0  0  0  0  0  0  0  0  0  0  0
   -4.2036    2.5126    0.0000 C   0  0  0  0  0  0  0  0  0  0  0  0
   -4.0363    0.9214    0.0000 C   0  0  0  0  0  0  0  0  0  0  0  0
   -5.3308   -0.0191    0.0000 C   0  0  0  0  0  0  0  0  0  0  0  0
   -6.7924    0.6317    0.0000 C   0  0  0  0  0  0  0  0  0  0  0  0
   -6.9597    2.2229    0.0000 C   0  0  0  0  0  0  0  0  0  0  0  0
   -8.0869   -0.3087    0.0000 F   0  0  0  0  0  0  0  0  0  0  0  0
   -2.9092    3.4531    0.0000 F   0  0  0  0  0  0  0  0  0  0  0  0
   -2.5747    0.2706    0.0000 C   0  0  0  0  0  0  0  0  0  0  0  0
   -1.1890    1.0706    0.0000 C   0  0  0  0  0  0  0  0  0  0  0  0
    0.0000    0.0000    0.0000 N   0  0  0  0  0  0  0  0  0  0  0  0
   -2.2420   -1.2944    0.0000 C   0  0  0  0  0  0  0  0  0  0  0  0
   -0.6508   -1.4617    0.0000 C   0  0  0  0  0  0  0  0  0  0  0  0
    1.5650    0.3327    0.0000 C   0  0  0  0  0  0  0  0  0  0  0  0
    2.6356   -0.8564    0.0000 O   0  0  0  0  0  0  0  0  0  0  0  0
    0.1492   -2.8473    0.0000 C   0  0  0  0  0  0  0  0  0  0  0  0
    1.7492   -2.8473    0.0000 C   0  0  0  0  0  0  0  0  0  0  0  0
    2.5492   -4.2330    0.0000 C   0  0  0  0  0  0  0  0  0  0  0  0
    1.7492   -5.6186    0.0000 C   0  0  0  0  0  0  0  0  0  0  0  0
    0.1492   -5.6186    0.0000 C   0  0  0  0  0  0  0  0  0  0  0  0
   -0.6508   -4.2330    0.0000 C   0  0  0  0  0  0  0  0  0  0  0  0
    2.0595    1.8543    0.0000 C   0  0  0  0  0  0  0  0  0  0  0  0
    3.6245    2.1870    0.0000 C   0  0  0  0  0  0  0  0  0  0  0  0
    1.5254    3.3626    0.0000 C   0  0  0  0  0  0  0  0  0  0  0  0
    0.6153    2.5432    0.0000 C   0  0  0  0  0  0  0  0  0  0  0  0
    4.1189    3.7087    0.0000 N   0  0  0  0  0  0  0  0  0  0  0  0
  1  2  1  0  0  0  0
  1  6  2  0  0  0  0
  2  3  2  0  0  0  0
  2  8  1  0  0  0  0
  3  4  1  0  0  0  0
  3  9  1  0  0  0  0
  4  5  2  0  0  0  0
  5  6  1  0  0  0  0
  5  7  1  0  0  0  0
  9 10  1  0  0  0  0
  9 12  2  0  0  0  0
 10 11  1  0  0  0  0
 11 13  1  0  0  0  0
 11 14  1  0  0  0  0
 12 13  1  0  0  0  0
 13 16  1  1  0  0  0
 14 15  2  0  0  0  0
 14 22  1  0  0  0  0
 16 17  1  0  0  0  0
 16 21  2  0  0  0  0
 17 18  2  0  0  0  0
 18 19  1  0  0  0  0
 19 20  2  0  0  0  0
 20 21  1  0  0  0  0
 22 23  1  0  0  0  0
 22 24  1  0  0  0  0
 22 25  1  0  0  0  0
 23 26  1  0  0  0  0
M  END
> <Acceptable>
false

> <IC50>
2.2

$$$$

Generated by Molecular Materials Informatics

 26 28  0  0  0  0  0  0  0  0999 V2000
   -5.6653    3.1634    0.0000 C   0  0  0  0  0  0  0  0  0  0  0  0
   -4.2036    2.5126    0.0000 C   0  0  0  0  0  0  0  0  0  0  0  0
   -4.0363    0.9214    0.0000 C   0  0  0  0  0  0  0  0  0  0  0  0
   -5.3308   -0.0191    0.0000 C   0  0  0  0  0  0  0  0  0  0  0  0
   -6.7924    0.6317    0.0000 C   0  0  0  0  0  0  0  0  0  0  0  0
   -6.9597    2.2229    0.0000 C   0  0  0  0  0  0  0  0  0  0  0  0
   -8.0869   -0.3087    0.0000 F   0  0  0  0  0  0  0  0  0  0  0  0
   -2.9092    3.4531    0.0000 F   0  0  0  0  0  0  0  0  0  0  0  0
   -2.5747    0.2706    0.0000 C   0  0  0  0  0  0  0  0  0  0  0  0
   -1.1890    1.0706    0.0000 C   0  0  0  0  0  0  0  0  0  0  0  0
    0.0000    0.0000    0.0000 N   0  0  0  0  0  0  0  0  0  0  0  0
   -2.2420   -1.2944    0.0000 C   0  0  0  0  0  0  0  0  0  0  0  0
   -0.6508   -1.4617    0.0000 C   0  0  0  0  0  0  0  0  0  0  0  0
    1.5650    0.3327    0.0000 C   0  0  0  0  0  0  0  0  0  0  0  0
    2.6356   -0.8564    0.0000 O   0  0  0  0  0  0  0  0  0  0  0  0
    0.1492   -2.8473    0.0000 C   0  0  0  0  0  0  0  0  0  0  0  0
    1.7492   -2.8473    0.0000 C   0  0  0  0  0  0  0  0  0  0  0  0
    2.5492   -4.2330    0.0000 C   0  0  0  0  0  0  0  0  0  0  0  0
    1.7492   -5.6186    0.0000 C   0  0  0  0  0  0  0  0  0  0  0  0
    0.1492   -5.6186    0.0000 C   0  0  0  0  0  0  0  0  0  0  0  0
   -0.6508   -4.2330    0.0000 C   0  0  0  0  0  0  0  0  0  0  0  0
    2.0595    1.8543    0.0000 C   0  0  0  0  0  0  0  0  0  0  0  0
    3.6245    2.1870    0.0000 C   0  0  0  0  0  0  0  0  0  0  0  0
    4.6951    0.9980    0.0000 C   0  0  0  0  0  0  0  0  0  0  0  0
    4.1189    3.7087    0.0000 C   0  0  0  0  0  0  0  0  0  0  0  0
    0.9889    3.0434    0.0000 N   0  0  0  0  0  0  0  0  0  0  0  0
  1  2  1  0  0  0  0
  1  6  2  0  0  0  0
  2  3  2  0  0  0  0
  2  8  1  0  0  0  0
  3  4  1  0  0  0  0
  3  9  1  0  0  0  0
  4  5  2  0  0  0  0
  5  6  1  0  0  0  0
  5  7  1  0  0  0  0
  9 10  1  0  0  0  0
  9 12  2  0  0  0  0
 10 11  1  0  0  0  0
 11 13  1  0  0  0  0
 11 14  1  0  0  0  0
 12 13  1  0  0  0  0
 13 16  1  1  0  0  0
 14 15  2  0  0  0  0
 14 22  1  0  0  0  0
 16 17  1  0  0  0  0
 16 21  2  0  0  0  0
 17 18  2  0  0  0  0
 18 19  1  0  0  0  0
 19 20  2  0  0  0  0
 20 21  1  0  0  0  0
 22 23  1  0  0  0  0
 22 26  1  6  0  0  0
 23 24  1  0  0  0  0
 23 25  1  0  0  0  0
M  END
> <Acceptable>
false

> <IC50>
2.4

$$$$

Generated by Molecular Materials Informatics

 26 29  0  0  0  0  0  0  0  0999 V2000
   -5.6653    3.1634    0.0000 C   0  0  0  0  0  0  0  0  0  0  0  0
   -4.2036    2.5126    0.0000 C   0  0  0  0  0  0  0  0  0  0  0  0
   -4.0363    0.9214    0.0000 C   0  0  0  0  0  0  0  0  0  0  0  0
   -5.3308   -0.0191    0.0000 C   0  0  0  0  0  0  0  0  0  0  0  0
   -6.7924    0.6317    0.0000 C   0  0  0  0  0  0  0  0  0  0  0  0
   -6.9597    2.2229    0.0000 C   0  0  0  0  0  0  0  0  0  0  0  0
   -8.0869   -0.3087    0.0000 F   0  0  0  0  0  0  0  0  0  0  0  0
   -2.9092    3.4531    0.0000 F   0  0  0  0  0  0  0  0  0  0  0  0
   -2.5747    0.2706    0.0000 C   0  0  0  0  0  0  0  0  0  0  0  0
   -1.1890    1.0706    0.0000 C   0  0  0  0  0  0  0  0  0  0  0  0
    0.0000    0.0000    0.0000 N   0  0  0  0  0  0  0  0  0  0  0  0
   -2.2420   -1.2944    0.0000 C   0  0  0  0  0  0  0  0  0  0  0  0
   -0.6508   -1.4617    0.0000 C   0  0  0  0  0  0  0  0  0  0  0  0
    1.5650    0.3327    0.0000 C   0  0  0  0  0  0  0  0  0  0  0  0
    2.6356   -0.8564    0.0000 O   0  0  0  0  0  0  0  0  0  0  0  0
    0.1492   -2.8473    0.0000 C   0  0  0  0  0  0  0  0  0  0  0  0
    1.7492   -2.8473    0.0000 C   0  0  0  0  0  0  0  0  0  0  0  0
    2.5492   -4.2330    0.0000 C   0  0  0  0  0  0  0  0  0  0  0  0
    1.7492   -5.6186    0.0000 C   0  0  0  0  0  0  0  0  0  0  0  0
    0.1492   -5.6186    0.0000 C   0  0  0  0  0  0  0  0  0  0  0  0
   -0.6508   -4.2330    0.0000 C   0  0  0  0  0  0  0  0  0  0  0  0
    2.0595    1.8543    0.0000 C   0  0  0  0  0  0  0  0  0  0  0  0
    0.9889    3.0434    0.0000 N   0  0  0  0  0  0  0  0  0  0  0  0
    3.6245    2.1870    0.0000 C   0  0  0  0  0  0  0  0  0  0  0  0
    4.8135    3.2576    0.0000 C   0  0  0  0  0  0  0  0  0  0  0  0
    5.1462    1.6926    0.0000 C   0  0  0  0  0  0  0  0  0  0  0  0
  1  2  1  0  0  0  0
  1  6  2  0  0  0  0
  2  3  2  0  0  0  0
  2  8  1  0  0  0  0
  3  4  1  0  0  0  0
  3  9  1  0  0  0  0
  4  5  2  0  0  0  0
  5  6  1  0  0  0  0
  5  7  1  0  0  0  0
  9 10  1  0  0  0  0
  9 12  2  0  0  0  0
 10 11  1  0  0  0  0
 11 13  1  0  0  0  0
 11 14  1  0  0  0  0
 12 13  1  0  0  0  0
 13 16  1  1  0  0  0
 14 15  2  0  0  0  0
 14 22  1  0  0  0  0
 16 17  1  0  0  0  0
 16 21  2  0  0  0  0
 17 18  2  0  0  0  0
 18 19  1  0  0  0  0
 19 20  2  0  0  0  0
 20 21  1  0  0  0  0
 22 23  1  6  0  0  0
 22 24  1  0  0  0  0
 24 25  1  0  0  0  0
 24 26  1  0  0  0  0
 25 26  1  0  0  0  0
M  END
> <Acceptable>
false

> <IC50>
3.5

$$$$

Generated by Molecular Materials Informatics

 27 29  0  0  0  0  0  0  0  0999 V2000
   -5.6653    3.1634    0.0000 C   0  0  0  0  0  0  0  0  0  0  0  0
   -4.2036    2.5126    0.0000 C   0  0  0  0  0  0  0  0  0  0  0  0
   -4.0363    0.9214    0.0000 C   0  0  0  0  0  0  0  0  0  0  0  0
   -5.3308   -0.0191    0.0000 C   0  0  0  0  0  0  0  0  0  0  0  0
   -6.7924    0.6317    0.0000 C   0  0  0  0  0  0  0  0  0  0  0  0
   -6.9597    2.2229    0.0000 C   0  0  0  0  0  0  0  0  0  0  0  0
   -8.0869   -0.3087    0.0000 F   0  0  0  0  0  0  0  0  0  0  0  0
   -2.9092    3.4531    0.0000 F   0  0  0  0  0  0  0  0  0  0  0  0
   -2.5747    0.2706    0.0000 C   0  0  0  0  0  0  0  0  0  0  0  0
   -1.1890    1.0706    0.0000 C   0  0  0  0  0  0  0  0  0  0  0  0
    0.0000    0.0000    0.0000 N   0  0  0  0  0  0  0  0  0  0  0  0
   -2.2420   -1.2944    0.0000 C   0  0  0  0  0  0  0  0  0  0  0  0
   -0.6508   -1.4617    0.0000 C   0  0  0  0  0  0  0  0  0  0  0  0
    1.5650    0.3327    0.0000 C   0  0  0  0  0  0  0  0  0  0  0  0
    2.6356   -0.8564    0.0000 O   0  0  0  0  0  0  0  0  0  0  0  0
    0.1492   -2.8473    0.0000 C   0  0  0  0  0  0  0  0  0  0  0  0
    1.7492   -2.8473    0.0000 C   0  0  0  0  0  0  0  0  0  0  0  0
    2.5492   -4.2330    0.0000 C   0  0  0  0  0  0  0  0  0  0  0  0
    1.7492   -5.6186    0.0000 C   0  0  0  0  0  0  0  0  0  0  0  0
    0.1492   -5.6186    0.0000 C   0  0  0  0  0  0  0  0  0  0  0  0
   -0.6508   -4.2330    0.0000 C   0  0  0  0  0  0  0  0  0  0  0  0
    2.0595    1.8543    0.0000 C   0  0  0  0  0  0  0  0  0  0  0  0
    0.9889    3.0434    0.0000 N   0  0  0  0  0  0  0  0  0  0  0  0
    3.6245    2.1870    0.0000 C   0  0  0  0  0  0  0  0  0  0  0  0
    4.6951    0.9980    0.0000 C   0  0  0  0  0  0  0  0  0  0  0  0
    4.1189    3.7087    0.0000 C   0  0  0  0  0  0  0  0  0  0  0  0
    5.1895    2.5197    0.0000 C   0  0  0  0  0  0  0  0  0  0  0  0
  1  2  1  0  0  0  0
  1  6  2  0  0  0  0
  2  3  2  0  0  0  0
  2  8  1  0  0  0  0
  3  4  1  0  0  0  0
  3  9  1  0  0  0  0
  4  5  2  0  0  0  0
  5  6  1  0  0  0  0
  5  7  1  0  0  0  0
  9 10  1  0  0  0  0
  9 12  2  0  0  0  0
 10 11  1  0  0  0  0
 11 13  1  0  0  0  0
 11 14  1  0  0  0  0
 12 13  1  0  0  0  0
 13 16  1  1  0  0  0
 14 15  2  0  0  0  0
 14 22  1  0  0  0  0
 16 17  1  0  0  0  0
 16 21  2  0  0  0  0
 17 18  2  0  0  0  0
 18 19  1  0  0  0  0
 19 20  2  0  0  0  0
 20 21  1  0  0  0  0
 22 23  1  6  0  0  0
 22 24  1  0  0  0  0
 24 25  1  0  0  0  0
 24 26  1  0  0  0  0
 24 27  1  0  0  0  0
M  END
> <Acceptable>
false

> <IC50>
1.5

$$$$

Generated by Molecular Materials Informatics

 33 35  0  0  0  0  0  0  0  0999 V2000
   -0.0930    6.4880    0.0000 C   0  0  0  0  0  0  0  0  0  0  0  0
    0.0742    4.8967    0.0000 C   0  0  0  0  0  0  0  0  0  0  0  0
   -1.2202    3.9563    0.0000 C   0  0  0  0  0  0  0  0  0  0  0  0
   -2.6819    4.6070    0.0000 C   0  0  0  0  0  0  0  0  0  0  0  0
   -2.8491    6.1983    0.0000 C   0  0  0  0  0  0  0  0  0  0  0  0
   -1.5547    7.1387    0.0000 C   0  0  0  0  0  0  0  0  0  0  0  0
   -4.3108    6.8491    0.0000 F   0  0  0  0  0  0  0  0  0  0  0  0
    1.5359    4.2459    0.0000 F   0  0  0  0  0  0  0  0  0  0  0  0
   -1.0530    2.3650    0.0000 C   0  0  0  0  0  0  0  0  0  0  0  0
    0.3327    1.5650    0.0000 C   0  0  0  0  0  0  0  0  0  0  0  0
    0.0000    0.0000    0.0000 N   0  0  0  0  0  0  0  0  0  0  0  0
   -2.2420    1.2944    0.0000 C   0  0  0  0  0  0  0  0  0  0  0  0
   -1.5912   -0.1672    0.0000 C   0  0  0  0  0  0  0  0  0  0  0  0
    1.0706   -1.1890    0.0000 C   0  0  0  0  0  0  0  0  0  0  0  0
    0.5762   -2.7107    0.0000 O   0  0  0  0  0  0  0  0  0  0  0  0
   -2.3912   -1.5529    0.0000 C   0  0  0  0  0  0  0  0  0  0  0  0
   -1.5912   -2.9385    0.0000 C   0  0  0  0  0  0  0  0  0  0  0  0
   -2.3912   -4.3242    0.0000 C   0  0  0  0  0  0  0  0  0  0  0  0
   -3.9912   -4.3242    0.0000 C   0  0  0  0  0  0  0  0  0  0  0  0
   -4.7912   -2.9385    0.0000 C   0  0  0  0  0  0  0  0  0  0  0  0
   -3.9912   -1.5529    0.0000 C   0  0  0  0  0  0  0  0  0  0  0  0
    2.6356   -0.8564    0.0000 C   0  0  0  0  0  0  0  0  0  0  0  0
    3.1301    0.6653    0.0000 N   0  0  0  0  0  0  0  0  0  0  0  0
    3.7063   -2.0454    0.0000 C   0  0  0  0  0  0  0  0  0  0  0  0
    3.2118   -3.5671    0.0000 C   0  0  0  0  0  0  0  0  0  0  0  0
    5.2713   -1.7127    0.0000 C   0  0  0  0  0  0  0  0  0  0  0  0
    4.7769   -3.2344    0.0000 C   0  0  0  0  0  0  0  0  0  0  0  0
    4.6951    0.9980    0.0000 C   0  0  0  0  0  0  0  0  0  0  0  0
    5.1895    2.5197    0.0000 O   0  0  0  0  0  0  0  0  0  0  0  0
    6.7546    2.8523    0.0000 C   0  0  0  0  0  0  0  0  0  0  0  0
    7.2490    4.3740    0.0000 C   0  0  0  0  0  0  0  0  0  0  0  0
    8.8140    4.7067    0.0000 O   0  0  0  0  0  0  0  0  0  0  0  0
    5.7657   -0.1911    0.0000 O   0  0  0  0  0  0  0  0  0  0  0  0
  1  2  1  0  0  0  0
  1  6  2  0  0  0  0
  2  3  2  0  0  0  0
  2  8  1  0  0  0  0
  3  4  1  0  0  0  0
  3  9  1  0  0  0  0
  4  5  2  0  0  0  0
  5  6  1  0  0  0  0
  5  7  1  0  0  0  0
  9 10  1  0  0  0  0
  9 12  2  0  0  0  0
 10 11  1  0  0  0  0
 11 13  1  0  0  0  0
 11 14  1  0  0  0  0
 12 13  1  0  0  0  0
 13 16  1  1  0  0  0
 14 15  2  0  0  0  0
 14 22  1  0  0  0  0
 16 17  1  0  0  0  0
 16 21  2  0  0  0  0
 17 18  2  0  0  0  0
 18 19  1  0  0  0  0
 19 20  2  0  0  0  0
 20 21  1  0  0  0  0
 22 23  1  6  0  0  0
 22 24  1  0  0  0  0
 23 28  1  0  0  0  0
 24 25  1  0  0  0  0
 24 26  1  0  0  0  0
 24 27  1  0  0  0  0
 28 29  1  0  0  0  0
 28 33  2  0  0  0  0
 29 30  1  0  0  0  0
 30 31  1  0  0  0  0
 31 32  1  0  0  0  0
M  END
> <Acceptable>
false

> <IC50>
25

$$$$

Generated by Molecular Materials Informatics

 26 29  0  0  0  0  0  0  0  0999 V2000
   -5.6653    3.1634    0.0000 C   0  0  0  0  0  0  0  0  0  0  0  0
   -4.2036    2.5126    0.0000 C   0  0  0  0  0  0  0  0  0  0  0  0
   -4.0363    0.9214    0.0000 C   0  0  0  0  0  0  0  0  0  0  0  0
   -5.3308   -0.0191    0.0000 C   0  0  0  0  0  0  0  0  0  0  0  0
   -6.7924    0.6317    0.0000 C   0  0  0  0  0  0  0  0  0  0  0  0
   -6.9597    2.2229    0.0000 C   0  0  0  0  0  0  0  0  0  0  0  0
   -8.0869   -0.3087    0.0000 F   0  0  0  0  0  0  0  0  0  0  0  0
   -2.9092    3.4531    0.0000 F   0  0  0  0  0  0  0  0  0  0  0  0
   -2.5747    0.2706    0.0000 C   0  0  0  0  0  0  0  0  0  0  0  0
   -1.1890    1.0706    0.0000 C   0  0  0  0  0  0  0  0  0  0  0  0
    0.0000    0.0000    0.0000 N   0  0  0  0  0  0  0  0  0  0  0  0
   -2.2420   -1.2944    0.0000 C   0  0  0  0  0  0  0  0  0  0  0  0
   -0.6508   -1.4617    0.0000 C   0  0  0  0  0  0  0  0  0  0  0  0
    1.5650    0.3327    0.0000 C   0  0  0  0  0  0  0  0  0  0  0  0
    2.6356   -0.8564    0.0000 O   0  0  0  0  0  0  0  0  0  0  0  0
    0.1492   -2.8473    0.0000 C   0  0  0  0  0  0  0  0  0  0  0  0
    1.7492   -2.8473    0.0000 C   0  0  0  0  0  0  0  0  0  0  0  0
    2.5492   -4.2330    0.0000 C   0  0  0  0  0  0  0  0  0  0  0  0
    1.7492   -5.6186    0.0000 C   0  0  0  0  0  0  0  0  0  0  0  0
    0.1492   -5.6186    0.0000 C   0  0  0  0  0  0  0  0  0  0  0  0
   -0.6508   -4.2330    0.0000 C   0  0  0  0  0  0  0  0  0  0  0  0
    2.0595    1.8543    0.0000 C   0  0  0  0  0  0  0  0  0  0  0  0
    0.9889    3.0434    0.0000 O   0  0  0  0  0  0  0  0  0  0  0  0
    3.6245    2.1870    0.0000 C   0  0  0  0  0  0  0  0  0  0  0  0
    4.8135    3.2576    0.0000 C   0  0  0  0  0  0  0  0  0  0  0  0
    5.1462    1.6926    0.0000 C   0  0  0  0  0  0  0  0  0  0  0  0
  1  2  1  0  0  0  0
  1  6  2  0  0  0  0
  2  3  2  0  0  0  0
  2  8  1  0  0  0  0
  3  4  1  0  0  0  0
  3  9  1  0  0  0  0
  4  5  2  0  0  0  0
  5  6  1  0  0  0  0
  5  7  1  0  0  0  0
  9 10  1  0  0  0  0
  9 12  2  0  0  0  0
 10 11  1  0  0  0  0
 11 13  1  0  0  0  0
 11 14  1  0  0  0  0
 12 13  1  0  0  0  0
 13 16  1  1  0  0  0
 14 15  2  0  0  0  0
 14 22  1  0  0  0  0
 16 17  1  0  0  0  0
 16 21  2  0  0  0  0
 17 18  2  0  0  0  0
 18 19  1  0  0  0  0
 19 20  2  0  0  0  0
 20 21  1  0  0  0  0
 22 23  1  6  0  0  0
 22 24  1  0  0  0  0
 24 25  1  0  0  0  0
 24 26  1  0  0  0  0
 25 26  1  0  0  0  0
M  END
> <Acceptable>
false

> <IC50>
11

$$$$

Generated by Molecular Materials Informatics

 26 28  0  0  0  0  0  0  0  0999 V2000
   -5.6653    3.1634    0.0000 C   0  0  0  0  0  0  0  0  0  0  0  0
   -4.2036    2.5126    0.0000 C   0  0  0  0  0  0  0  0  0  0  0  0
   -4.0363    0.9214    0.0000 C   0  0  0  0  0  0  0  0  0  0  0  0
   -5.3308   -0.0191    0.0000 C   0  0  0  0  0  0  0  0  0  0  0  0
   -6.7924    0.6317    0.0000 C   0  0  0  0  0  0  0  0  0  0  0  0
   -6.9597    2.2229    0.0000 C   0  0  0  0  0  0  0  0  0  0  0  0
   -8.0869   -0.3087    0.0000 F   0  0  0  0  0  0  0  0  0  0  0  0
   -2.9092    3.4531    0.0000 F   0  0  0  0  0  0  0  0  0  0  0  0
   -2.5747    0.2706    0.0000 C   0  0  0  0  0  0  0  0  0  0  0  0
   -1.1890    1.0706    0.0000 C   0  0  0  0  0  0  0  0  0  0  0  0
    0.0000    0.0000    0.0000 N   0  0  0  0  0  0  0  0  0  0  0  0
   -2.2420   -1.2944    0.0000 C   0  0  0  0  0  0  0  0  0  0  0  0
   -0.6508   -1.4617    0.0000 C   0  0  0  0  0  0  0  0  0  0  0  0
    0.1492   -2.8473    0.0000 C   0  0  0  0  0  0  0  0  0  0  0  0
    1.7492   -2.8473    0.0000 C   0  0  0  0  0  0  0  0  0  0  0  0
    2.5492   -4.2330    0.0000 C   0  0  0  0  0  0  0  0  0  0  0  0
    1.7492   -5.6186    0.0000 C   0  0  0  0  0  0  0  0  0  0  0  0
    0.1492   -5.6186    0.0000 C   0  0  0  0  0  0  0  0  0  0  0  0
   -0.6508   -4.2330    0.0000 C   0  0  0  0  0  0  0  0  0  0  0  0
    4.1492   -4.2330    0.0000 O   0  0  0  0  0  0  0  0  0  0  0  0
    1.5650    0.3327    0.0000 C   0  0  0  0  0  0  0  0  0  0  0  0
    2.0595    1.8543    0.0000 C   0  0  0  0  0  0  0  0  0  0  0  0
    2.6356   -0.8564    0.0000 O   0  0  0  0  0  0  0  0  0  0  0  0
    0.9889    3.0434    0.0000 C   0  0  0  0  0  0  0  0  0  0  0  0
    3.6245    2.1870    0.0000 C   0  0  0  0  0  0  0  0  0  0  0  0
    2.5539    3.3760    0.0000 C   0  0  0  0  0  0  0  0  0  0  0  0
  1  2  1  0  0  0  0
  1  6  2  0  0  0  0
  2  3  2  0  0  0  0
  2  8  1  0  0  0  0
  3  4  1  0  0  0  0
  3  9  1  0  0  0  0
  4  5  2  0  0  0  0
  5  6  1  0  0  0  0
  5  7  1  0  0  0  0
  9 10  1  0  0  0  0
  9 12  2  0  0  0  0
 10 11  1  0  0  0  0
 11 13  1  0  0  0  0
 11 21  1  0  0  0  0
 12 13  1  0  0  0  0
 13 14  1  1  0  0  0
 14 15  1  0  0  0  0
 14 19  2  0  0  0  0
 15 16  2  0  0  0  0
 16 17  1  0  0  0  0
 16 20  1  0  0  0  0
 17 18  2  0  0  0  0
 18 19  1  0  0  0  0
 21 22  1  0  0  0  0
 21 23  2  0  0  0  0
 22 24  1  0  0  0  0
 22 25  1  0  0  0  0
 22 26  1  0  0  0  0
M  END
> <Acceptable>
false

> <IC50>
7.8

$$$$

Generated by Molecular Materials Informatics

 27 29  0  0  0  0  0  0  0  0999 V2000
   -5.0145    4.6251    0.0000 C   0  0  0  0  0  0  0  0  0  0  0  0
   -3.5528    3.9743    0.0000 C   0  0  0  0  0  0  0  0  0  0  0  0
   -3.3856    2.3831    0.0000 C   0  0  0  0  0  0  0  0  0  0  0  0
   -4.6800    1.4426    0.0000 C   0  0  0  0  0  0  0  0  0  0  0  0
   -6.1417    2.0934    0.0000 C   0  0  0  0  0  0  0  0  0  0  0  0
   -6.3089    3.6846    0.0000 C   0  0  0  0  0  0  0  0  0  0  0  0
   -7.4361    1.1529    0.0000 F   0  0  0  0  0  0  0  0  0  0  0  0
   -2.2584    4.9148    0.0000 F   0  0  0  0  0  0  0  0  0  0  0  0
   -1.9239    1.7323    0.0000 C   0  0  0  0  0  0  0  0  0  0  0  0
   -0.5383    2.5323    0.0000 C   0  0  0  0  0  0  0  0  0  0  0  0
    0.6508    1.4617    0.0000 N   0  0  0  0  0  0  0  0  0  0  0  0
   -1.5912    0.1672    0.0000 C   0  0  0  0  0  0  0  0  0  0  0  0
    0.0000    0.0000    0.0000 C   0  0  0  0  0  0  0  0  0  0  0  0
    0.8000   -1.3856    0.0000 C   0  0  0  0  0  0  0  0  0  0  0  0
    2.4000   -1.3856    0.0000 C   0  0  0  0  0  0  0  0  0  0  0  0
    3.2000   -2.7713    0.0000 C   0  0  0  0  0  0  0  0  0  0  0  0
    2.4000   -4.1569    0.0000 C   0  0  0  0  0  0  0  0  0  0  0  0
    0.8000   -4.1569    0.0000 C   0  0  0  0  0  0  0  0  0  0  0  0
    0.0000   -2.7713    0.0000 C   0  0  0  0  0  0  0  0  0  0  0  0
    4.8000   -2.7713    0.0000 O   0  0  0  0  0  0  0  0  0  0  0  0
    2.2158    1.7943    0.0000 C   0  0  0  0  0  0  0  0  0  0  0  0
    3.2864    0.6053    0.0000 O   0  0  0  0  0  0  0  0  0  0  0  0
    2.7102    3.3160    0.0000 C   0  0  0  0  0  0  0  0  0  0  0  0
    4.2753    3.6487    0.0000 C   0  0  0  0  0  0  0  0  0  0  0  0
    5.3459    2.4597    0.0000 C   0  0  0  0  0  0  0  0  0  0  0  0
    4.7697    5.1704    0.0000 C   0  0  0  0  0  0  0  0  0  0  0  0
    1.6396    4.5051    0.0000 N   0  0  0  0  0  0  0  0  0  0  0  0
  1  2  1  0  0  0  0
  1  6  2  0  0  0  0
  2  3  2  0  0  0  0
  2  8  1  0  0  0  0
  3  4  1  0  0  0  0
  3  9  1  0  0  0  0
  4  5  2  0  0  0  0
  5  6  1  0  0  0  0
  5  7  1  0  0  0  0
  9 10  1  0  0  0  0
  9 12  2  0  0  0  0
 10 11  1  0  0  0  0
 11 13  1  0  0  0  0
 11 21  1  0  0  0  0
 12 13  1  0  0  0  0
 13 14  1  1  0  0  0
 14 15  1  0  0  0  0
 14 19  2  0  0  0  0
 15 16  2  0  0  0  0
 16 17  1  0  0  0  0
 16 20  1  0  0  0  0
 17 18  2  0  0  0  0
 18 19  1  0  0  0  0
 21 22  2  0  0  0  0
 21 23  1  0  0  0  0
 23 24  1  0  0  0  0
 23 27  1  1  0  0  0
 24 25  1  0  0  0  0
 24 26  1  0  0  0  0
M  END
> <Acceptable>
false

> <IC50>
8.5

$$$$

Generated by Molecular Materials Informatics

 27 30  0  0  0  0  0  0  0  0999 V2000
   -5.0145    4.6251    0.0000 C   0  0  0  0  0  0  0  0  0  0  0  0
   -3.5528    3.9743    0.0000 C   0  0  0  0  0  0  0  0  0  0  0  0
   -3.3856    2.3831    0.0000 C   0  0  0  0  0  0  0  0  0  0  0  0
   -4.6800    1.4426    0.0000 C   0  0  0  0  0  0  0  0  0  0  0  0
   -6.1417    2.0934    0.0000 C   0  0  0  0  0  0  0  0  0  0  0  0
   -6.3089    3.6846    0.0000 C   0  0  0  0  0  0  0  0  0  0  0  0
   -7.4361    1.1529    0.0000 F   0  0  0  0  0  0  0  0  0  0  0  0
   -2.2584    4.9148    0.0000 F   0  0  0  0  0  0  0  0  0  0  0  0
   -1.9239    1.7323    0.0000 C   0  0  0  0  0  0  0  0  0  0  0  0
   -0.5383    2.5323    0.0000 C   0  0  0  0  0  0  0  0  0  0  0  0
    0.6508    1.4617    0.0000 N   0  0  0  0  0  0  0  0  0  0  0  0
   -1.5912    0.1672    0.0000 C   0  0  0  0  0  0  0  0  0  0  0  0
    0.0000    0.0000    0.0000 C   0  0  0  0  0  0  0  0  0  0  0  0
    0.8000   -1.3856    0.0000 C   0  0  0  0  0  0  0  0  0  0  0  0
    2.4000   -1.3856    0.0000 C   0  0  0  0  0  0  0  0  0  0  0  0
    3.2000   -2.7713    0.0000 C   0  0  0  0  0  0  0  0  0  0  0  0
    2.4000   -4.1569    0.0000 C   0  0  0  0  0  0  0  0  0  0  0  0
    0.8000   -4.1569    0.0000 C   0  0  0  0  0  0  0  0  0  0  0  0
    0.0000   -2.7713    0.0000 C   0  0  0  0  0  0  0  0  0  0  0  0
    4.8000   -2.7713    0.0000 O   0  0  0  0  0  0  0  0  0  0  0  0
    2.2158    1.7943    0.0000 C   0  0  0  0  0  0  0  0  0  0  0  0
    3.2864    0.6053    0.0000 O   0  0  0  0  0  0  0  0  0  0  0  0
    2.7102    3.3160    0.0000 C   0  0  0  0  0  0  0  0  0  0  0  0
    1.6396    4.5051    0.0000 N   0  0  0  0  0  0  0  0  0  0  0  0
    4.2753    3.6487    0.0000 C   0  0  0  0  0  0  0  0  0  0  0  0
    5.4643    4.7193    0.0000 C   0  0  0  0  0  0  0  0  0  0  0  0
    5.7970    3.1543    0.0000 C   0  0  0  0  0  0  0  0  0  0  0  0
  1  2  1  0  0  0  0
  1  6  2  0  0  0  0
  2  3  2  0  0  0  0
  2  8  1  0  0  0  0
  3  4  1  0  0  0  0
  3  9  1  0  0  0  0
  4  5  2  0  0  0  0
  5  6  1  0  0  0  0
  5  7  1  0  0  0  0
  9 10  1  0  0  0  0
  9 12  2  0  0  0  0
 10 11  1  0  0  0  0
 11 13  1  0  0  0  0
 11 21  1  0  0  0  0
 12 13  1  0  0  0  0
 13 14  1  1  0  0  0
 14 15  1  0  0  0  0
 14 19  2  0  0  0  0
 15 16  2  0  0  0  0
 16 17  1  0  0  0  0
 16 20  1  0  0  0  0
 17 18  2  0  0  0  0
 18 19  1  0  0  0  0
 21 22  2  0  0  0  0
 21 23  1  0  0  0  0
 23 24  1  1  0  0  0
 23 25  1  0  0  0  0
 25 26  1  0  0  0  0
 25 27  1  0  0  0  0
 26 27  1  0  0  0  0
M  END
> <Acceptable>
false

> <IC50>
5.6

$$$$

Generated by Molecular Materials Informatics

 27 30  0  0  0  0  0  0  0  0999 V2000
   -5.0145    4.6251    0.0000 C   0  0  0  0  0  0  0  0  0  0  0  0
   -3.5528    3.9743    0.0000 C   0  0  0  0  0  0  0  0  0  0  0  0
   -3.3856    2.3831    0.0000 C   0  0  0  0  0  0  0  0  0  0  0  0
   -4.6800    1.4426    0.0000 C   0  0  0  0  0  0  0  0  0  0  0  0
   -6.1417    2.0934    0.0000 C   0  0  0  0  0  0  0  0  0  0  0  0
   -6.3089    3.6846    0.0000 C   0  0  0  0  0  0  0  0  0  0  0  0
   -7.4361    1.1529    0.0000 F   0  0  0  0  0  0  0  0  0  0  0  0
   -2.2584    4.9148    0.0000 F   0  0  0  0  0  0  0  0  0  0  0  0
   -1.9239    1.7323    0.0000 C   0  0  0  0  0  0  0  0  0  0  0  0
   -0.5383    2.5323    0.0000 C   0  0  0  0  0  0  0  0  0  0  0  0
    0.6508    1.4617    0.0000 N   0  0  0  0  0  0  0  0  0  0  0  0
   -1.5912    0.1672    0.0000 C   0  0  0  0  0  0  0  0  0  0  0  0
    0.0000    0.0000    0.0000 C   0  0  0  0  0  0  0  0  0  0  0  0
    0.8000   -1.3856    0.0000 C   0  0  0  0  0  0  0  0  0  0  0  0
    2.4000   -1.3856    0.0000 C   0  0  0  0  0  0  0  0  0  0  0  0
    3.2000   -2.7713    0.0000 C   0  0  0  0  0  0  0  0  0  0  0  0
    2.4000   -4.1569    0.0000 C   0  0  0  0  0  0  0  0  0  0  0  0
    0.8000   -4.1569    0.0000 C   0  0  0  0  0  0  0  0  0  0  0  0
    0.0000   -2.7713    0.0000 C   0  0  0  0  0  0  0  0  0  0  0  0
    4.8000   -2.7713    0.0000 O   0  0  0  0  0  0  0  0  0  0  0  0
    2.2158    1.7943    0.0000 C   0  0  0  0  0  0  0  0  0  0  0  0
    3.2864    0.6053    0.0000 O   0  0  0  0  0  0  0  0  0  0  0  0
    2.7102    3.3160    0.0000 C   0  0  0  0  0  0  0  0  0  0  0  0
    1.6396    4.5051    0.0000 O   0  0  0  0  0  0  0  0  0  0  0  0
    4.2753    3.6487    0.0000 C   0  0  0  0  0  0  0  0  0  0  0  0
    5.4643    4.7193    0.0000 C   0  0  0  0  0  0  0  0  0  0  0  0
    5.7970    3.1543    0.0000 C   0  0  0  0  0  0  0  0  0  0  0  0
  1  2  1  0  0  0  0
  1  6  2  0  0  0  0
  2  3  2  0  0  0  0
  2  8  1  0  0  0  0
  3  4  1  0  0  0  0
  3  9  1  0  0  0  0
  4  5  2  0  0  0  0
  5  6  1  0  0  0  0
  5  7  1  0  0  0  0
  9 10  1  0  0  0  0
  9 12  2  0  0  0  0
 10 11  1  0  0  0  0
 11 13  1  0  0  0  0
 11 21  1  0  0  0  0
 12 13  1  0  0  0  0
 13 14  1  1  0  0  0
 14 15  1  0  0  0  0
 14 19  2  0  0  0  0
 15 16  2  0  0  0  0
 16 17  1  0  0  0  0
 16 20  1  0  0  0  0
 17 18  2  0  0  0  0
 18 19  1  0  0  0  0
 21 22  2  0  0  0  0
 21 23  1  0  0  0  0
 23 24  1  1  0  0  0
 23 25  1  0  0  0  0
 25 26  1  0  0  0  0
 25 27  1  0  0  0  0
 26 27  1  0  0  0  0
M  END
> <Acceptable>
false

> <IC50>
18

$$$$

Generated by Molecular Materials Informatics

 28 30  0  0  0  0  0  0  0  0999 V2000
   -5.6653    3.1634    0.0000 C   0  0  0  0  0  0  0  0  0  0  0  0
   -4.2036    2.5126    0.0000 C   0  0  0  0  0  0  0  0  0  0  0  0
   -4.0363    0.9214    0.0000 C   0  0  0  0  0  0  0  0  0  0  0  0
   -5.3308   -0.0191    0.0000 C   0  0  0  0  0  0  0  0  0  0  0  0
   -6.7924    0.6317    0.0000 C   0  0  0  0  0  0  0  0  0  0  0  0
   -6.9597    2.2229    0.0000 C   0  0  0  0  0  0  0  0  0  0  0  0
   -8.0869   -0.3087    0.0000 F   0  0  0  0  0  0  0  0  0  0  0  0
   -2.9092    3.4531    0.0000 F   0  0  0  0  0  0  0  0  0  0  0  0
   -2.5747    0.2706    0.0000 C   0  0  0  0  0  0  0  0  0  0  0  0
   -1.1890    1.0706    0.0000 C   0  0  0  0  0  0  0  0  0  0  0  0
    0.0000    0.0000    0.0000 N   0  0  0  0  0  0  0  0  0  0  0  0
   -2.2420   -1.2944    0.0000 C   0  0  0  0  0  0  0  0  0  0  0  0
   -0.6508   -1.4617    0.0000 C   0  0  0  0  0  0  0  0  0  0  0  0
    0.1492   -2.8473    0.0000 C   0  0  0  0  0  0  0  0  0  0  0  0
    1.7492   -2.8473    0.0000 C   0  0  0  0  0  0  0  0  0  0  0  0
    2.5492   -4.2330    0.0000 C   0  0  0  0  0  0  0  0  0  0  0  0
    1.7492   -5.6186    0.0000 C   0  0  0  0  0  0  0  0  0  0  0  0
    0.1492   -5.6186    0.0000 C   0  0  0  0  0  0  0  0  0  0  0  0
   -0.6508   -4.2330    0.0000 C   0  0  0  0  0  0  0  0  0  0  0  0
    4.1492   -4.2330    0.0000 O   0  0  0  0  0  0  0  0  0  0  0  0
    1.5650    0.3327    0.0000 C   0  0  0  0  0  0  0  0  0  0  0  0
    2.6356   -0.8564    0.0000 O   0  0  0  0  0  0  0  0  0  0  0  0
    2.0595    1.8543    0.0000 C   0  0  0  0  0  0  0  0  0  0  0  0
    0.9889    3.0434    0.0000 O   0  0  0  0  0  0  0  0  0  0  0  0
    3.6245    2.1870    0.0000 C   0  0  0  0  0  0  0  0  0  0  0  0
    4.6951    0.9980    0.0000 C   0  0  0  0  0  0  0  0  0  0  0  0
    4.1189    3.7087    0.0000 C   0  0  0  0  0  0  0  0  0  0  0  0
    5.1895    2.5197    0.0000 C   0  0  0  0  0  0  0  0  0  0  0  0
  1  2  1  0  0  0  0
  1  6  2  0  0  0  0
  2  3  2  0  0  0  0
  2  8  1  0  0  0  0
  3  4  1  0  0  0  0
  3  9  1  0  0  0  0
  4  5  2  0  0  0  0
  5  6  1  0  0  0  0
  5  7  1  0  0  0  0
  9 10  1  0  0  0  0
  9 12  2  0  0  0  0
 10 11  1  0  0  0  0
 11 13  1  0  0  0  0
 11 21  1  0  0  0  0
 12 13  1  0  0  0  0
 13 14  1  1  0  0  0
 14 15  1  0  0  0  0
 14 19  2  0  0  0  0
 15 16  2  0  0  0  0
 16 17  1  0  0  0  0
 16 20  1  0  0  0  0
 17 18  2  0  0  0  0
 18 19  1  0  0  0  0
 21 22  2  0  0  0  0
 21 23  1  0  0  0  0
 23 24  1  1  0  0  0
 23 25  1  0  0  0  0
 25 26  1  0  0  0  0
 25 27  1  0  0  0  0
 25 28  1  0  0  0  0
M  END
> <Acceptable>
false

> <IC50>
7.8

$$$$

Generated by Molecular Materials Informatics

 25 27  0  0  0  0  0  0  0  0999 V2000
   -5.0145    4.6251    0.0000 C   0  0  0  0  0  0  0  0  0  0  0  0
   -3.5528    3.9743    0.0000 C   0  0  0  0  0  0  0  0  0  0  0  0
   -3.3856    2.3831    0.0000 C   0  0  0  0  0  0  0  0  0  0  0  0
   -4.6800    1.4426    0.0000 C   0  0  0  0  0  0  0  0  0  0  0  0
   -6.1417    2.0934    0.0000 C   0  0  0  0  0  0  0  0  0  0  0  0
   -6.3089    3.6846    0.0000 C   0  0  0  0  0  0  0  0  0  0  0  0
   -7.4361    1.1529    0.0000 F   0  0  0  0  0  0  0  0  0  0  0  0
   -2.2584    4.9148    0.0000 F   0  0  0  0  0  0  0  0  0  0  0  0
   -1.9239    1.7323    0.0000 C   0  0  0  0  0  0  0  0  0  0  0  0
   -0.5383    2.5323    0.0000 C   0  0  0  0  0  0  0  0  0  0  0  0
    0.6508    1.4617    0.0000 N   0  0  0  0  0  0  0  0  0  0  0  0
   -1.5912    0.1672    0.0000 C   0  0  0  0  0  0  0  0  0  0  0  0
    0.0000    0.0000    0.0000 C   0  0  0  0  0  0  0  0  0  0  0  0
    0.8000   -1.3856    0.0000 C   0  0  0  0  0  0  0  0  0  0  0  0
    2.4000   -1.3856    0.0000 C   0  0  0  0  0  0  0  0  0  0  0  0
    3.2000   -2.7713    0.0000 C   0  0  0  0  0  0  0  0  0  0  0  0
    2.4000   -4.1569    0.0000 C   0  0  0  0  0  0  0  0  0  0  0  0
    0.8000   -4.1569    0.0000 C   0  0  0  0  0  0  0  0  0  0  0  0
    0.0000   -2.7713    0.0000 C   0  0  0  0  0  0  0  0  0  0  0  0
    4.8000   -2.7713    0.0000 O   0  0  0  0  0  0  0  0  0  0  0  0
    2.2158    1.7943    0.0000 C   0  0  0  0  0  0  0  0  0  0  0  0
    3.2864    0.6053    0.0000 O   0  0  0  0  0  0  0  0  0  0  0  0
    2.7102    3.3160    0.0000 N   0  0  0  0  0  0  0  0  0  0  0  0
    1.6396    4.5051    0.0000 C   0  0  0  0  0  0  0  0  0  0  0  0
    4.2753    3.6487    0.0000 C   0  0  0  0  0  0  0  0  0  0  0  0
  1  2  1  0  0  0  0
  1  6  2  0  0  0  0
  2  3  2  0  0  0  0
  2  8  1  0  0  0  0
  3  4  1  0  0  0  0
  3  9  1  0  0  0  0
  4  5  2  0  0  0  0
  5  6  1  0  0  0  0
  5  7  1  0  0  0  0
  9 10  1  0  0  0  0
  9 12  2  0  0  0  0
 10 11  1  0  0  0  0
 11 13  1  0  0  0  0
 11 21  1  0  0  0  0
 12 13  1  0  0  0  0
 13 14  1  1  0  0  0
 14 15  1  0  0  0  0
 14 19  2  0  0  0  0
 15 16  2  0  0  0  0
 16 17  1  0  0  0  0
 16 20  1  0  0  0  0
 17 18  2  0  0  0  0
 18 19  1  0  0  0  0
 21 22  2  0  0  0  0
 21 23  1  0  0  0  0
 23 24  1  0  0  0  0
 23 25  1  0  0  0  0
M  END
> <Acceptable>
false

> <IC50>
33

$$$$

Generated by Molecular Materials Informatics

 27 29  0  0  0  0  0  0  0  0999 V2000
   -5.0145    4.6251    0.0000 C   0  0  0  0  0  0  0  0  0  0  0  0
   -3.5528    3.9743    0.0000 C   0  0  0  0  0  0  0  0  0  0  0  0
   -3.3856    2.3831    0.0000 C   0  0  0  0  0  0  0  0  0  0  0  0
   -4.6800    1.4426    0.0000 C   0  0  0  0  0  0  0  0  0  0  0  0
   -6.1417    2.0934    0.0000 C   0  0  0  0  0  0  0  0  0  0  0  0
   -6.3089    3.6846    0.0000 C   0  0  0  0  0  0  0  0  0  0  0  0
   -7.4361    1.1529    0.0000 F   0  0  0  0  0  0  0  0  0  0  0  0
   -2.2584    4.9148    0.0000 F   0  0  0  0  0  0  0  0  0  0  0  0
   -1.9239    1.7323    0.0000 C   0  0  0  0  0  0  0  0  0  0  0  0
   -0.5383    2.5323    0.0000 C   0  0  0  0  0  0  0  0  0  0  0  0
    0.6508    1.4617    0.0000 N   0  0  0  0  0  0  0  0  0  0  0  0
   -1.5912    0.1672    0.0000 C   0  0  0  0  0  0  0  0  0  0  0  0
    0.0000    0.0000    0.0000 C   0  0  0  0  0  0  0  0  0  0  0  0
    0.8000   -1.3856    0.0000 C   0  0  0  0  0  0  0  0  0  0  0  0
    2.4000   -1.3856    0.0000 C   0  0  0  0  0  0  0  0  0  0  0  0
    3.2000   -2.7713    0.0000 C   0  0  0  0  0  0  0  0  0  0  0  0
    2.4000   -4.1569    0.0000 C   0  0  0  0  0  0  0  0  0  0  0  0
    0.8000   -4.1569    0.0000 C   0  0  0  0  0  0  0  0  0  0  0  0
    0.0000   -2.7713    0.0000 C   0  0  0  0  0  0  0  0  0  0  0  0
    4.8000   -2.7713    0.0000 O   0  0  0  0  0  0  0  0  0  0  0  0
    2.2158    1.7943    0.0000 C   0  0  0  0  0  0  0  0  0  0  0  0
    3.2864    0.6053    0.0000 O   0  0  0  0  0  0  0  0  0  0  0  0
    2.7102    3.3160    0.0000 N   0  0  0  0  0  0  0  0  0  0  0  0
    4.2753    3.6487    0.0000 C   0  0  0  0  0  0  0  0  0  0  0  0
    1.6396    4.5051    0.0000 C   0  0  0  0  0  0  0  0  0  0  0  0
    4.7697    5.1704    0.0000 C   0  0  0  0  0  0  0  0  0  0  0  0
    6.3347    5.5030    0.0000 O   0  0  0  0  0  0  0  0  0  0  0  0
  1  2  1  0  0  0  0
  1  6  2  0  0  0  0
  2  3  2  0  0  0  0
  2  8  1  0  0  0  0
  3  4  1  0  0  0  0
  3  9  1  0  0  0  0
  4  5  2  0  0  0  0
  5  6  1  0  0  0  0
  5  7  1  0  0  0  0
  9 10  1  0  0  0  0
  9 12  2  0  0  0  0
 10 11  1  0  0  0  0
 11 13  1  0  0  0  0
 11 21  1  0  0  0  0
 12 13  1  0  0  0  0
 13 14  1  1  0  0  0
 14 15  1  0  0  0  0
 14 19  2  0  0  0  0
 15 16  2  0  0  0  0
 16 17  1  0  0  0  0
 16 20  1  0  0  0  0
 17 18  2  0  0  0  0
 18 19  1  0  0  0  0
 21 22  2  0  0  0  0
 21 23  1  0  0  0  0
 23 24  1  0  0  0  0
 23 25  1  0  0  0  0
 24 26  1  0  0  0  0
 26 27  1  0  0  0  0
M  END
> <Acceptable>
false

> <IC50>
15

$$$$

Generated by Molecular Materials Informatics

 30 33  0  0  0  0  0  0  0  0999 V2000
   -5.0145    4.6251    0.0000 C   0  0  0  0  0  0  0  0  0  0  0  0
   -3.5528    3.9743    0.0000 C   0  0  0  0  0  0  0  0  0  0  0  0
   -3.3856    2.3831    0.0000 C   0  0  0  0  0  0  0  0  0  0  0  0
   -4.6800    1.4426    0.0000 C   0  0  0  0  0  0  0  0  0  0  0  0
   -6.1417    2.0934    0.0000 C   0  0  0  0  0  0  0  0  0  0  0  0
   -6.3089    3.6846    0.0000 C   0  0  0  0  0  0  0  0  0  0  0  0
   -7.4361    1.1529    0.0000 F   0  0  0  0  0  0  0  0  0  0  0  0
   -2.2584    4.9148    0.0000 F   0  0  0  0  0  0  0  0  0  0  0  0
   -1.9239    1.7323    0.0000 C   0  0  0  0  0  0  0  0  0  0  0  0
   -0.5383    2.5323    0.0000 C   0  0  0  0  0  0  0  0  0  0  0  0
    0.6508    1.4617    0.0000 N   0  0  0  0  0  0  0  0  0  0  0  0
   -1.5912    0.1672    0.0000 C   0  0  0  0  0  0  0  0  0  0  0  0
    0.0000    0.0000    0.0000 C   0  0  0  0  0  0  0  0  0  0  0  0
    0.8000   -1.3856    0.0000 C   0  0  0  0  0  0  0  0  0  0  0  0
    2.4000   -1.3856    0.0000 C   0  0  0  0  0  0  0  0  0  0  0  0
    3.2000   -2.7713    0.0000 C   0  0  0  0  0  0  0  0  0  0  0  0
    2.4000   -4.1569    0.0000 C   0  0  0  0  0  0  0  0  0  0  0  0
    0.8000   -4.1569    0.0000 C   0  0  0  0  0  0  0  0  0  0  0  0
    0.0000   -2.7713    0.0000 C   0  0  0  0  0  0  0  0  0  0  0  0
    4.8000   -2.7713    0.0000 O   0  0  0  0  0  0  0  0  0  0  0  0
    2.2158    1.7943    0.0000 C   0  0  0  0  0  0  0  0  0  0  0  0
    3.2864    0.6053    0.0000 O   0  0  0  0  0  0  0  0  0  0  0  0
    2.7102    3.3160    0.0000 N   0  0  0  0  0  0  0  0  0  0  0  0
    1.6396    4.5051    0.0000 C   0  0  0  0  0  0  0  0  0  0  0  0
    4.2753    3.6487    0.0000 C   0  0  0  0  0  0  0  0  0  0  0  0
    4.7697    5.1704    0.0000 C   0  0  0  0  0  0  0  0  0  0  0  0
    6.3347    5.5030    0.0000 C   0  0  0  0  0  0  0  0  0  0  0  0
    7.4054    4.3140    0.0000 N   0  0  0  0  0  0  0  0  0  0  0  0
    6.9109    2.7923    0.0000 C   0  0  0  0  0  0  0  0  0  0  0  0
    5.3459    2.4596    0.0000 C   0  0  0  0  0  0  0  0  0  0  0  0
  1  2  1  0  0  0  0
  1  6  2  0  0  0  0
  2  3  2  0  0  0  0
  2  8  1  0  0  0  0
  3  4  1  0  0  0  0
  3  9  1  0  0  0  0
  4  5  2  0  0  0  0
  5  6  1  0  0  0  0
  5  7  1  0  0  0  0
  9 10  1  0  0  0  0
  9 12  2  0  0  0  0
 10 11  1  0  0  0  0
 11 13  1  0  0  0  0
 11 21  1  0  0  0  0
 12 13  1  0  0  0  0
 13 14  1  1  0  0  0
 14 15  1  0  0  0  0
 14 19  2  0  0  0  0
 15 16  2  0  0  0  0
 16 17  1  0  0  0  0
 16 20  1  0  0  0  0
 17 18  2  0  0  0  0
 18 19  1  0  0  0  0
 21 22  2  0  0  0  0
 21 23  1  0  0  0  0
 23 24  1  0  0  0  0
 23 25  1  0  0  0  0
 25 26  1  0  0  0  0
 25 30  1  0  0  0  0
 26 27  1  0  0  0  0
 27 28  1  0  0  0  0
 28 29  1  0  0  0  0
 29 30  1  0  0  0  0
M  END
> <Acceptable>
false

> <IC50>
6.6

$$$$

Generated by Molecular Materials Informatics

 39 43  0  0  0  0  0  0  0  0999 V2000
   -3.9250    9.2315    0.0000 C   0  0  0  0  0  0  0  0  0  0  0  0
   -2.4633    8.5808    0.0000 C   0  0  0  0  0  0  0  0  0  0  0  0
   -2.2961    6.9895    0.0000 C   0  0  0  0  0  0  0  0  0  0  0  0
   -3.5905    6.0491    0.0000 C   0  0  0  0  0  0  0  0  0  0  0  0
   -5.0522    6.6998    0.0000 C   0  0  0  0  0  0  0  0  0  0  0  0
   -5.2194    8.2911    0.0000 C   0  0  0  0  0  0  0  0  0  0  0  0
   -4.0922   10.8228    0.0000 F   0  0  0  0  0  0  0  0  0  0  0  0
   -1.1689    9.5212    0.0000 C   0  0  0  0  0  0  0  0  0  0  0  0
   -3.4233    4.4578    0.0000 N   0  0  0  0  0  0  0  0  0  0  0  0
   -1.9616    3.8070    0.0000 C   0  0  0  0  0  0  0  0  0  0  0  0
   -1.7943    2.2158    0.0000 N   0  0  0  0  0  0  0  0  0  0  0  0
   -0.6672    4.7475    0.0000 O   0  0  0  0  0  0  0  0  0  0  0  0
   -3.0888    1.2754    0.0000 C   0  0  0  0  0  0  0  0  0  0  0  0
   -4.5504    1.9261    0.0000 C   0  0  0  0  0  0  0  0  0  0  0  0
   -5.8449    0.9857    0.0000 C   0  0  0  0  0  0  0  0  0  0  0  0
   -7.3065    1.6365    0.0000 N   0  0  0  0  0  0  0  0  0  0  0  0
   -8.6010    0.6960    0.0000 C   0  0  0  0  0  0  0  0  0  0  0  0
  -10.0626    1.3468    0.0000 C   0  0  0  0  0  0  0  0  0  0  0  0
  -10.2299    2.9380    0.0000 N   0  0  0  0  0  0  0  0  0  0  0  0
   -8.9355    3.8785    0.0000 C   0  0  0  0  0  0  0  0  0  0  0  0
   -7.4738    3.2277    0.0000 C   0  0  0  0  0  0  0  0  0  0  0  0
  -11.6916    3.5888    0.0000 C   0  0  0  0  0  0  0  0  0  0  0  0
   -0.3327    1.5650    0.0000 C   0  0  0  0  0  0  0  0  0  0  0  0
    1.0530    2.3650    0.0000 C   0  0  0  0  0  0  0  0  0  0  0  0
    2.2420    1.2944    0.0000 C   0  0  0  0  0  0  0  0  0  0  0  0
    1.5912   -0.1672    0.0000 C   0  0  0  0  0  0  0  0  0  0  0  0
    0.0000    0.0000    0.0000 C   0  0  0  0  0  0  0  0  0  0  0  0
    0.6508   -1.4617    0.0000 C   0  0  0  0  0  0  0  0  0  0  0  0
    3.8070    1.6271    0.0000 C   0  0  0  0  0  0  0  0  0  0  0  0
    4.3015    3.1488    0.0000 C   0  0  0  0  0  0  0  0  0  0  0  0
    5.8665    3.4814    0.0000 C   0  0  0  0  0  0  0  0  0  0  0  0
    6.9371    2.2924    0.0000 C   0  0  0  0  0  0  0  0  0  0  0  0
    6.4427    0.7707    0.0000 C   0  0  0  0  0  0  0  0  0  0  0  0
    4.8777    0.4381    0.0000 C   0  0  0  0  0  0  0  0  0  0  0  0
    8.5022    2.6251    0.0000 C   0  0  0  0  0  0  0  0  0  0  0  0
    0.2928    8.8704    0.0000 F   0  0  0  0  0  0  0  0  0  0  0  0
   -1.3361   11.1124    0.0000 F   0  0  0  0  0  0  0  0  0  0  0  0
    0.1255   10.4617    0.0000 F   0  0  0  0  0  0  0  0  0  0  0  0
   10.0672    2.9577    0.0000 N   0  0  0  0  0  0  0  0  0  0  0  0
  1  2  1  0  0  0  0
  1  6  2  0  0  0  0
  1  7  1  0  0  0  0
  2  3  2  0  0  0  0
  2  8  1  0  0  0  0
  3  4  1  0  0  0  0
  4  5  2  0  0  0  0
  4  9  1  0  0  0  0
  5  6  1  0  0  0  0
  8 36  1  0  0  0  0
  8 37  1  0  0  0  0
  8 38  1  0  0  0  0
  9 10  1  0  0  0  0
 10 11  1  0  0  0  0
 10 12  2  0  0  0  0
 11 13  1  0  0  0  0
 23 11  1  6  0  0  0
 13 14  1  0  0  0  0
 14 15  1  0  0  0  0
 16 15  1  6  0  0  0
 16 17  1  0  0  0  0
 16 21  1  0  0  0  0
 17 18  1  0  0  0  0
 18 19  1  0  0  0  0
 19 20  1  0  0  0  0
 19 22  1  1  0  0  0
 20 21  1  0  0  0  0
 23 24  1  0  0  0  0
 23 27  1  0  0  0  0
 24 25  1  0  0  0  0
 25 26  1  0  0  0  0
 25 29  1  1  0  0  0
 26 27  1  0  0  0  0
 26 28  1  6  0  0  0
 27 28  1  6  0  0  0
 29 30  1  0  0  0  0
 29 34  2  0  0  0  0
 30 31  2  0  0  0  0
 31 32  1  0  0  0  0
 32 33  2  0  0  0  0
 32 35  1  0  0  0  0
 33 34  1  0  0  0  0
 35 39  3  0  0  0  0
M  END
> <Acceptable>
false

> <IC50>
0.052

$$$$

Generated by Molecular Materials Informatics

 34 38  0  0  0  0  0  0  0  0999 V2000
   -3.9250    9.2315    0.0000 C   0  0  0  0  0  0  0  0  0  0  0  0
   -2.4633    8.5808    0.0000 C   0  0  0  0  0  0  0  0  0  0  0  0
   -2.2961    6.9895    0.0000 C   0  0  0  0  0  0  0  0  0  0  0  0
   -3.5905    6.0491    0.0000 C   0  0  0  0  0  0  0  0  0  0  0  0
   -5.0522    6.6998    0.0000 C   0  0  0  0  0  0  0  0  0  0  0  0
   -5.2194    8.2911    0.0000 C   0  0  0  0  0  0  0  0  0  0  0  0
   -4.0922   10.8228    0.0000 F   0  0  0  0  0  0  0  0  0  0  0  0
   -1.1689    9.5212    0.0000 Cl  0  0  0  0  0  0  0  0  0  0  0  0
   -3.4233    4.4578    0.0000 N   0  0  0  0  0  0  0  0  0  0  0  0
   -1.9616    3.8070    0.0000 C   0  0  0  0  0  0  0  0  0  0  0  0
   -1.7943    2.2158    0.0000 N   0  0  0  0  0  0  0  0  0  0  0  0
   -0.6672    4.7475    0.0000 O   0  0  0  0  0  0  0  0  0  0  0  0
   -3.0888    1.2754    0.0000 C   0  0  0  0  0  0  0  0  0  0  0  0
   -4.5504    1.9261    0.0000 C   0  0  0  0  0  0  0  0  0  0  0  0
   -5.8449    0.9857    0.0000 C   0  0  0  0  0  0  0  0  0  0  0  0
   -7.3065    1.6365    0.0000 N   0  0  0  0  0  0  0  0  0  0  0  0
   -8.6010    0.6960    0.0000 C   0  0  0  0  0  0  0  0  0  0  0  0
  -10.0626    1.3468    0.0000 C   0  0  0  0  0  0  0  0  0  0  0  0
  -10.2299    2.9380    0.0000 N   0  0  0  0  0  0  0  0  0  0  0  0
   -8.9355    3.8785    0.0000 C   0  0  0  0  0  0  0  0  0  0  0  0
   -7.4738    3.2277    0.0000 C   0  0  0  0  0  0  0  0  0  0  0  0
  -11.6916    3.5888    0.0000 C   0  0  0  0  0  0  0  0  0  0  0  0
   -0.3327    1.5650    0.0000 C   0  0  0  0  0  0  0  0  0  0  0  0
    1.0530    2.3650    0.0000 C   0  0  0  0  0  0  0  0  0  0  0  0
    2.2420    1.2944    0.0000 C   0  0  0  0  0  0  0  0  0  0  0  0
    1.5912   -0.1672    0.0000 C   0  0  0  0  0  0  0  0  0  0  0  0
    0.0000    0.0000    0.0000 C   0  0  0  0  0  0  0  0  0  0  0  0
    0.6508   -1.4617    0.0000 C   0  0  0  0  0  0  0  0  0  0  0  0
    3.8070    1.6271    0.0000 C   0  0  0  0  0  0  0  0  0  0  0  0
    4.3015    3.1488    0.0000 C   0  0  0  0  0  0  0  0  0  0  0  0
    5.8665    3.4814    0.0000 C   0  0  0  0  0  0  0  0  0  0  0  0
    6.9371    2.2924    0.0000 C   0  0  0  0  0  0  0  0  0  0  0  0
    6.4427    0.7707    0.0000 C   0  0  0  0  0  0  0  0  0  0  0  0
    4.8777    0.4381    0.0000 C   0  0  0  0  0  0  0  0  0  0  0  0
  1  2  1  0  0  0  0
  1  6  2  0  0  0  0
  1  7  1  0  0  0  0
  2  3  2  0  0  0  0
  2  8  1  0  0  0  0
  3  4  1  0  0  0  0
  4  5  2  0  0  0  0
  4  9  1  0  0  0  0
  5  6  1  0  0  0  0
  9 10  1  0  0  0  0
 10 11  1  0  0  0  0
 10 12  2  0  0  0  0
 11 13  1  0  0  0  0
 23 11  1  6  0  0  0
 13 14  1  0  0  0  0
 14 15  1  0  0  0  0
 16 15  1  6  0  0  0
 16 17  1  0  0  0  0
 16 21  1  0  0  0  0
 17 18  1  0  0  0  0
 18 19  1  0  0  0  0
 19 20  1  0  0  0  0
 19 22  1  1  0  0  0
 20 21  1  0  0  0  0
 23 24  1  0  0  0  0
 23 27  1  0  0  0  0
 24 25  1  0  0  0  0
 25 26  1  0  0  0  0
 25 29  1  1  0  0  0
 26 27  1  0  0  0  0
 26 28  1  6  0  0  0
 27 28  1  6  0  0  0
 29 30  1  0  0  0  0
 29 34  2  0  0  0  0
 30 31  2  0  0  0  0
 31 32  1  0  0  0  0
 32 33  2  0  0  0  0
 33 34  1  0  0  0  0
M  END
> <Acceptable>
false

> <IC50>
<<1

$$$$

Generated by Molecular Materials Informatics

 41 45  0  0  0  0  0  0  0  0999 V2000
   -3.9250    9.2315    0.0000 C   0  0  0  0  0  0  0  0  0  0  0  0
   -2.4633    8.5808    0.0000 C   0  0  0  0  0  0  0  0  0  0  0  0
   -2.2961    6.9895    0.0000 C   0  0  0  0  0  0  0  0  0  0  0  0
   -3.5905    6.0491    0.0000 C   0  0  0  0  0  0  0  0  0  0  0  0
   -5.0522    6.6998    0.0000 C   0  0  0  0  0  0  0  0  0  0  0  0
   -5.2194    8.2911    0.0000 C   0  0  0  0  0  0  0  0  0  0  0  0
   -4.0922   10.8228    0.0000 F   0  0  0  0  0  0  0  0  0  0  0  0
   -1.1689    9.5212    0.0000 C   0  0  0  0  0  0  0  0  0  0  0  0
   -3.4233    4.4578    0.0000 N   0  0  0  0  0  0  0  0  0  0  0  0
   -1.9616    3.8070    0.0000 C   0  0  0  0  0  0  0  0  0  0  0  0
   -1.7943    2.2158    0.0000 N   0  0  0  0  0  0  0  0  0  0  0  0
   -0.6672    4.7475    0.0000 O   0  0  0  0  0  0  0  0  0  0  0  0
   -3.0888    1.2754    0.0000 C   0  0  0  0  0  0  0  0  0  0  0  0
   -4.5504    1.9261    0.0000 C   0  0  0  0  0  0  0  0  0  0  0  0
   -5.8449    0.9857    0.0000 C   0  0  0  0  0  0  0  0  0  0  0  0
   -7.3065    1.6365    0.0000 N   0  0  0  0  0  0  0  0  0  0  0  0
   -8.6010    0.6960    0.0000 C   0  0  0  0  0  0  0  0  0  0  0  0
  -10.0626    1.3468    0.0000 C   0  0  0  0  0  0  0  0  0  0  0  0
  -10.2299    2.9380    0.0000 N   0  0  0  0  0  0  0  0  0  0  0  0
   -8.9355    3.8785    0.0000 C   0  0  0  0  0  0  0  0  0  0  0  0
   -7.4738    3.2277    0.0000 C   0  0  0  0  0  0  0  0  0  0  0  0
  -11.6916    3.5888    0.0000 C   0  0  0  0  0  0  0  0  0  0  0  0
   -0.3327    1.5650    0.0000 C   0  0  0  0  0  0  0  0  0  0  0  0
    1.0530    2.3650    0.0000 C   0  0  0  0  0  0  0  0  0  0  0  0
    2.2420    1.2944    0.0000 C   0  0  0  0  0  0  0  0  0  0  0  0
    1.5912   -0.1672    0.0000 C   0  0  0  0  0  0  0  0  0  0  0  0
    0.0000    0.0000    0.0000 C   0  0  0  0  0  0  0  0  0  0  0  0
    0.6508   -1.4617    0.0000 C   0  0  0  0  0  0  0  0  0  0  0  0
    3.8070    1.6271    0.0000 C   0  0  0  0  0  0  0  0  0  0  0  0
    4.3015    3.1488    0.0000 C   0  0  0  0  0  0  0  0  0  0  0  0
    5.8665    3.4814    0.0000 C   0  0  0  0  0  0  0  0  0  0  0  0
    6.9371    2.2924    0.0000 C   0  0  0  0  0  0  0  0  0  0  0  0
    6.4427    0.7707    0.0000 C   0  0  0  0  0  0  0  0  0  0  0  0
    4.8777    0.4381    0.0000 C   0  0  0  0  0  0  0  0  0  0  0  0
    0.2928    8.8704    0.0000 F   0  0  0  0  0  0  0  0  0  0  0  0
   -1.3361   11.1124    0.0000 F   0  0  0  0  0  0  0  0  0  0  0  0
    0.1255   10.4617    0.0000 F   0  0  0  0  0  0  0  0  0  0  0  0
    8.5022    2.6251    0.0000 C   0  0  0  0  0  0  0  0  0  0  0  0
    9.5728    1.4360    0.0000 O   0  0  0  0  0  0  0  0  0  0  0  0
   11.1378    1.7687    0.0000 C   0  0  0  0  0  0  0  0  0  0  0  0
    8.9966    4.1468    0.0000 O   0  0  0  0  0  0  0  0  0  0  0  0
  1  2  1  0  0  0  0
  1  6  2  0  0  0  0
  1  7  1  0  0  0  0
  2  3  2  0  0  0  0
  2  8  1  0  0  0  0
  3  4  1  0  0  0  0
  4  5  2  0  0  0  0
  4  9  1  0  0  0  0
  5  6  1  0  0  0  0
  8 35  1  0  0  0  0
  8 36  1  0  0  0  0
  8 37  1  0  0  0  0
  9 10  1  0  0  0  0
 10 11  1  0  0  0  0
 10 12  2  0  0  0  0
 11 13  1  0  0  0  0
 23 11  1  6  0  0  0
 13 14  1  0  0  0  0
 14 15  1  0  0  0  0
 16 15  1  6  0  0  0
 16 17  1  0  0  0  0
 16 21  1  0  0  0  0
 17 18  1  0  0  0  0
 18 19  1  0  0  0  0
 19 20  1  0  0  0  0
 19 22  1  1  0  0  0
 20 21  1  0  0  0  0
 23 24  1  0  0  0  0
 23 27  1  0  0  0  0
 24 25  1  0  0  0  0
 25 26  1  0  0  0  0
 25 29  1  1  0  0  0
 26 27  1  0  0  0  0
 26 28  1  6  0  0  0
 27 28  1  6  0  0  0
 29 30  1  0  0  0  0
 29 34  2  0  0  0  0
 30 31  2  0  0  0  0
 31 32  1  0  0  0  0
 32 33  2  0  0  0  0
 32 38  1  0  0  0  0
 33 34  1  0  0  0  0
 38 39  1  0  0  0  0
 38 41  2  0  0  0  0
 39 40  1  0  0  0  0
M  END
> <Acceptable>
false

> <IC50>
<<1

$$$$

Generated by Molecular Materials Informatics

 35 39  0  0  0  0  0  0  0  0999 V2000
   -3.9250    9.2315    0.0000 C   0  0  0  0  0  0  0  0  0  0  0  0
   -2.4633    8.5808    0.0000 C   0  0  0  0  0  0  0  0  0  0  0  0
   -2.2961    6.9895    0.0000 C   0  0  0  0  0  0  0  0  0  0  0  0
   -3.5905    6.0491    0.0000 C   0  0  0  0  0  0  0  0  0  0  0  0
   -5.0522    6.6998    0.0000 C   0  0  0  0  0  0  0  0  0  0  0  0
   -5.2194    8.2911    0.0000 C   0  0  0  0  0  0  0  0  0  0  0  0
   -4.0922   10.8228    0.0000 F   0  0  0  0  0  0  0  0  0  0  0  0
   -1.1689    9.5212    0.0000 Cl  0  0  0  0  0  0  0  0  0  0  0  0
   -3.4233    4.4578    0.0000 N   0  0  0  0  0  0  0  0  0  0  0  0
   -1.9616    3.8070    0.0000 C   0  0  0  0  0  0  0  0  0  0  0  0
   -1.7943    2.2158    0.0000 N   0  0  0  0  0  0  0  0  0  0  0  0
   -0.6672    4.7475    0.0000 O   0  0  0  0  0  0  0  0  0  0  0  0
   -3.0888    1.2754    0.0000 C   0  0  0  0  0  0  0  0  0  0  0  0
   -4.5504    1.9261    0.0000 C   0  0  0  0  0  0  0  0  0  0  0  0
   -5.8449    0.9857    0.0000 C   0  0  0  0  0  0  0  0  0  0  0  0
   -7.3065    1.6365    0.0000 N   0  0  0  0  0  0  0  0  0  0  0  0
   -8.6010    0.6960    0.0000 C   0  0  0  0  0  0  0  0  0  0  0  0
  -10.0626    1.3468    0.0000 C   0  0  0  0  0  0  0  0  0  0  0  0
  -10.2299    2.9380    0.0000 N   0  0  0  0  0  0  0  0  0  0  0  0
   -8.9355    3.8785    0.0000 C   0  0  0  0  0  0  0  0  0  0  0  0
   -7.4738    3.2277    0.0000 C   0  0  0  0  0  0  0  0  0  0  0  0
  -11.6916    3.5888    0.0000 C   0  0  0  0  0  0  0  0  0  0  0  0
   -0.3327    1.5650    0.0000 C   0  0  0  0  0  0  0  0  0  0  0  0
    1.0530    2.3650    0.0000 C   0  0  0  0  0  0  0  0  0  0  0  0
    2.2420    1.2944    0.0000 C   0  0  0  0  0  0  0  0  0  0  0  0
    1.5912   -0.1672    0.0000 C   0  0  0  0  0  0  0  0  0  0  0  0
    0.0000    0.0000    0.0000 C   0  0  0  0  0  0  0  0  0  0  0  0
    0.6508   -1.4617    0.0000 C   0  0  0  0  0  0  0  0  0  0  0  0
    3.8070    1.6271    0.0000 C   0  0  0  0  0  0  0  0  0  0  0  0
    4.3015    3.1488    0.0000 C   0  0  0  0  0  0  0  0  0  0  0  0
    5.8665    3.4814    0.0000 C   0  0  0  0  0  0  0  0  0  0  0  0
    6.9371    2.2924    0.0000 C   0  0  0  0  0  0  0  0  0  0  0  0
    6.4427    0.7707    0.0000 C   0  0  0  0  0  0  0  0  0  0  0  0
    4.8777    0.4381    0.0000 C   0  0  0  0  0  0  0  0  0  0  0  0
    8.5022    2.6251    0.0000 F   0  0  0  0  0  0  0  0  0  0  0  0
  1  2  1  0  0  0  0
  1  6  2  0  0  0  0
  1  7  1  0  0  0  0
  2  3  2  0  0  0  0
  2  8  1  0  0  0  0
  3  4  1  0  0  0  0
  4  5  2  0  0  0  0
  4  9  1  0  0  0  0
  5  6  1  0  0  0  0
  9 10  1  0  0  0  0
 10 11  1  0  0  0  0
 10 12  2  0  0  0  0
 11 13  1  0  0  0  0
 23 11  1  6  0  0  0
 13 14  1  0  0  0  0
 14 15  1  0  0  0  0
 16 15  1  6  0  0  0
 16 17  1  0  0  0  0
 16 21  1  0  0  0  0
 17 18  1  0  0  0  0
 18 19  1  0  0  0  0
 19 20  1  0  0  0  0
 19 22  1  1  0  0  0
 20 21  1  0  0  0  0
 23 24  1  0  0  0  0
 23 27  1  0  0  0  0
 24 25  1  0  0  0  0
 25 26  1  0  0  0  0
 25 29  1  1  0  0  0
 26 27  1  0  0  0  0
 26 28  1  6  0  0  0
 27 28  1  6  0  0  0
 29 30  1  0  0  0  0
 29 34  2  0  0  0  0
 30 31  2  0  0  0  0
 31 32  1  0  0  0  0
 32 33  2  0  0  0  0
 32 35  1  0  0  0  0
 33 34  1  0  0  0  0
M  END
> <Acceptable>
false

> <IC50>
<<1

$$$$

Generated by Molecular Materials Informatics

 36 40  0  0  0  0  0  0  0  0999 V2000
   -3.9250    9.2315    0.0000 C   0  0  0  0  0  0  0  0  0  0  0  0
   -2.4633    8.5808    0.0000 C   0  0  0  0  0  0  0  0  0  0  0  0
   -2.2961    6.9895    0.0000 C   0  0  0  0  0  0  0  0  0  0  0  0
   -3.5905    6.0491    0.0000 C   0  0  0  0  0  0  0  0  0  0  0  0
   -5.0522    6.6998    0.0000 C   0  0  0  0  0  0  0  0  0  0  0  0
   -5.2194    8.2911    0.0000 C   0  0  0  0  0  0  0  0  0  0  0  0
   -4.0922   10.8228    0.0000 F   0  0  0  0  0  0  0  0  0  0  0  0
   -1.1689    9.5212    0.0000 Cl  0  0  0  0  0  0  0  0  0  0  0  0
   -3.4233    4.4578    0.0000 N   0  0  0  0  0  0  0  0  0  0  0  0
   -1.9616    3.8070    0.0000 C   0  0  0  0  0  0  0  0  0  0  0  0
   -1.7943    2.2158    0.0000 N   0  0  0  0  0  0  0  0  0  0  0  0
   -0.6672    4.7475    0.0000 O   0  0  0  0  0  0  0  0  0  0  0  0
   -3.0888    1.2754    0.0000 C   0  0  0  0  0  0  0  0  0  0  0  0
   -4.5504    1.9261    0.0000 C   0  0  0  0  0  0  0  0  0  0  0  0
   -5.8449    0.9857    0.0000 C   0  0  0  0  0  0  0  0  0  0  0  0
   -7.3065    1.6365    0.0000 N   0  0  0  0  0  0  0  0  0  0  0  0
   -8.6010    0.6960    0.0000 C   0  0  0  0  0  0  0  0  0  0  0  0
  -10.0626    1.3468    0.0000 C   0  0  0  0  0  0  0  0  0  0  0  0
  -10.2299    2.9380    0.0000 N   0  0  0  0  0  0  0  0  0  0  0  0
   -8.9355    3.8785    0.0000 C   0  0  0  0  0  0  0  0  0  0  0  0
   -7.4738    3.2277    0.0000 C   0  0  0  0  0  0  0  0  0  0  0  0
  -11.6916    3.5888    0.0000 C   0  0  0  0  0  0  0  0  0  0  0  0
   -0.3327    1.5650    0.0000 C   0  0  0  0  0  0  0  0  0  0  0  0
    1.0530    2.3650    0.0000 C   0  0  0  0  0  0  0  0  0  0  0  0
    2.2420    1.2944    0.0000 C   0  0  0  0  0  0  0  0  0  0  0  0
    1.5912   -0.1672    0.0000 C   0  0  0  0  0  0  0  0  0  0  0  0
    0.0000    0.0000    0.0000 C   0  0  0  0  0  0  0  0  0  0  0  0
    0.6508   -1.4617    0.0000 C   0  0  0  0  0  0  0  0  0  0  0  0
    3.8070    1.6271    0.0000 C   0  0  0  0  0  0  0  0  0  0  0  0
    4.3015    3.1488    0.0000 C   0  0  0  0  0  0  0  0  0  0  0  0
    5.8665    3.4814    0.0000 C   0  0  0  0  0  0  0  0  0  0  0  0
    6.9371    2.2924    0.0000 C   0  0  0  0  0  0  0  0  0  0  0  0
    6.4427    0.7707    0.0000 C   0  0  0  0  0  0  0  0  0  0  0  0
    4.8777    0.4381    0.0000 C   0  0  0  0  0  0  0  0  0  0  0  0
    6.3609    5.0031    0.0000 O   0  0  0  0  0  0  0  0  0  0  0  0
    7.9260    5.3358    0.0000 C   0  0  0  0  0  0  0  0  0  0  0  0
  1  2  1  0  0  0  0
  1  6  2  0  0  0  0
  1  7  1  0  0  0  0
  2  3  2  0  0  0  0
  2  8  1  0  0  0  0
  3  4  1  0  0  0  0
  4  5  2  0  0  0  0
  4  9  1  0  0  0  0
  5  6  1  0  0  0  0
  9 10  1  0  0  0  0
 10 11  1  0  0  0  0
 10 12  2  0  0  0  0
 11 13  1  0  0  0  0
 23 11  1  6  0  0  0
 13 14  1  0  0  0  0
 14 15  1  0  0  0  0
 16 15  1  6  0  0  0
 16 17  1  0  0  0  0
 16 21  1  0  0  0  0
 17 18  1  0  0  0  0
 18 19  1  0  0  0  0
 19 20  1  0  0  0  0
 19 22  1  1  0  0  0
 20 21  1  0  0  0  0
 23 24  1  0  0  0  0
 23 27  1  0  0  0  0
 24 25  1  0  0  0  0
 25 26  1  0  0  0  0
 25 29  1  1  0  0  0
 26 27  1  0  0  0  0
 26 28  1  6  0  0  0
 27 28  1  6  0  0  0
 29 30  1  0  0  0  0
 29 34  2  0  0  0  0
 30 31  2  0  0  0  0
 31 32  1  0  0  0  0
 31 35  1  0  0  0  0
 32 33  2  0  0  0  0
 33 34  1  0  0  0  0
 35 36  1  0  0  0  0
M  END
> <Acceptable>
false

> <IC50>
<<1

$$$$

Generated by Molecular Materials Informatics

 41 46  0  0  0  0  0  0  0  0999 V2000
   -8.4355   -0.8778    0.0000 C   0  0  0  0  0  0  0  0  0  0  0  0
   -8.2683   -2.4690    0.0000 C   0  0  0  0  0  0  0  0  0  0  0  0
   -6.8066   -3.1198    0.0000 C   0  0  0  0  0  0  0  0  0  0  0  0
   -5.5122   -2.1794    0.0000 C   0  0  0  0  0  0  0  0  0  0  0  0
   -5.6794   -0.5881    0.0000 C   0  0  0  0  0  0  0  0  0  0  0  0
   -7.1411    0.0627    0.0000 C   0  0  0  0  0  0  0  0  0  0  0  0
   -9.8972   -0.2270    0.0000 F   0  0  0  0  0  0  0  0  0  0  0  0
   -9.5627   -3.4095    0.0000 C   0  0  0  0  0  0  0  0  0  0  0  0
   -4.0505   -2.8301    0.0000 N   0  0  0  0  0  0  0  0  0  0  0  0
   -2.7561   -1.8897    0.0000 C   0  0  0  0  0  0  0  0  0  0  0  0
   -1.2944   -2.5405    0.0000 N   0  0  0  0  0  0  0  0  0  0  0  0
   -2.9233   -0.2984    0.0000 O   0  0  0  0  0  0  0  0  0  0  0  0
   -1.1272   -4.1317    0.0000 C   0  0  0  0  0  0  0  0  0  0  0  0
   -2.4216   -5.0721    0.0000 C   0  0  0  0  0  0  0  0  0  0  0  0
   -2.2544   -6.6634    0.0000 C   0  0  0  0  0  0  0  0  0  0  0  0
   -3.5488   -7.6038    0.0000 N   0  0  0  0  0  0  0  0  0  0  0  0
   -5.0105   -6.9531    0.0000 C   0  0  0  0  0  0  0  0  0  0  0  0
   -6.3049   -7.8935    0.0000 C   0  0  0  0  0  0  0  0  0  0  0  0
   -6.1376   -9.4848    0.0000 N   0  0  0  0  0  0  0  0  0  0  0  0
   -4.6760  -10.1355    0.0000 C   0  0  0  0  0  0  0  0  0  0  0  0
   -3.3815   -9.1951    0.0000 C   0  0  0  0  0  0  0  0  0  0  0  0
   -7.4321  -10.4252    0.0000 C   0  0  0  0  0  0  0  0  0  0  0  0
    0.0000   -1.6000    0.0000 C   0  0  0  0  0  0  0  0  0  0  0  0
    1.5217   -2.0944    0.0000 C   0  0  0  0  0  0  0  0  0  0  0  0
    2.4621   -0.8000    0.0000 C   0  0  0  0  0  0  0  0  0  0  0  0
    1.5217    0.4944    0.0000 C   0  0  0  0  0  0  0  0  0  0  0  0
    0.0000    0.0000    0.0000 C   0  0  0  0  0  0  0  0  0  0  0  0
    0.3327    1.5650    0.0000 C   0  0  0  0  0  0  0  0  0  0  0  0
    4.0621   -0.8000    0.0000 C   0  0  0  0  0  0  0  0  0  0  0  0
    4.8621   -2.1856    0.0000 C   0  0  0  0  0  0  0  0  0  0  0  0
    6.4621   -2.1856    0.0000 C   0  0  0  0  0  0  0  0  0  0  0  0
    7.2621   -0.8000    0.0000 C   0  0  0  0  0  0  0  0  0  0  0  0
    6.4621    0.5856    0.0000 C   0  0  0  0  0  0  0  0  0  0  0  0
    4.8621    0.5856    0.0000 C   0  0  0  0  0  0  0  0  0  0  0  0
   -9.3955   -5.0007    0.0000 F   0  0  0  0  0  0  0  0  0  0  0  0
  -11.0244   -2.7587    0.0000 F   0  0  0  0  0  0  0  0  0  0  0  0
  -10.8572   -4.3499    0.0000 F   0  0  0  0  0  0  0  0  0  0  0  0
    8.8272   -1.1327    0.0000 O   0  0  0  0  0  0  0  0  0  0  0  0
    7.5328   -3.3747    0.0000 C   0  0  0  0  0  0  0  0  0  0  0  0
    8.9944   -2.7239    0.0000 N   0  0  0  0  0  0  0  0  0  0  0  0
    7.2001   -4.9397    0.0000 N   0  0  0  0  0  0  0  0  0  0  0  0
  1  2  1  0  0  0  0
  1  6  2  0  0  0  0
  1  7  1  0  0  0  0
  2  3  2  0  0  0  0
  2  8  1  0  0  0  0
  3  4  1  0  0  0  0
  4  5  2  0  0  0  0
  4  9  1  0  0  0  0
  5  6  1  0  0  0  0
  8 35  1  0  0  0  0
  8 36  1  0  0  0  0
  8 37  1  0  0  0  0
  9 10  1  0  0  0  0
 10 11  1  0  0  0  0
 10 12  2  0  0  0  0
 11 13  1  0  0  0  0
 23 11  1  1  0  0  0
 13 14  1  0  0  0  0
 14 15  1  0  0  0  0
 16 15  1  1  0  0  0
 16 17  1  0  0  0  0
 16 21  1  0  0  0  0
 17 18  1  0  0  0  0
 18 19  1  0  0  0  0
 19 20  1  0  0  0  0
 19 22  1  6  0  0  0
 20 21  1  0  0  0  0
 23 24  1  0  0  0  0
 23 27  1  0  0  0  0
 24 25  1  0  0  0  0
 25 26  1  0  0  0  0
 25 29  1  6  0  0  0
 26 27  1  0  0  0  0
 26 28  1  1  0  0  0
 27 28  1  1  0  0  0
 29 30  1  0  0  0  0
 29 34  2  0  0  0  0
 30 31  2  0  0  0  0
 31 32  1  0  0  0  0
 31 39  1  0  0  0  0
 32 33  2  0  0  0  0
 32 38  1  0  0  0  0
 33 34  1  0  0  0  0
 38 40  1  0  0  0  0
 39 40  1  0  0  0  0
 39 41  1  1  0  0  0
M  END
> <Acceptable>
false

> <IC50>
0.69

$$$$

Generated by Molecular Materials Informatics

 39 43  0  0  0  0  0  0  0  0999 V2000
   -3.9250    9.2315    0.0000 C   0  0  0  0  0  0  0  0  0  0  0  0
   -2.4633    8.5808    0.0000 C   0  0  0  0  0  0  0  0  0  0  0  0
   -2.2961    6.9895    0.0000 C   0  0  0  0  0  0  0  0  0  0  0  0
   -3.5905    6.0491    0.0000 C   0  0  0  0  0  0  0  0  0  0  0  0
   -5.0522    6.6998    0.0000 C   0  0  0  0  0  0  0  0  0  0  0  0
   -5.2194    8.2911    0.0000 C   0  0  0  0  0  0  0  0  0  0  0  0
   -4.0922   10.8228    0.0000 F   0  0  0  0  0  0  0  0  0  0  0  0
   -1.1689    9.5212    0.0000 C   0  0  0  0  0  0  0  0  0  0  0  0
   -3.4233    4.4578    0.0000 N   0  0  0  0  0  0  0  0  0  0  0  0
   -1.9616    3.8070    0.0000 C   0  0  0  0  0  0  0  0  0  0  0  0
   -1.7943    2.2158    0.0000 N   0  0  0  0  0  0  0  0  0  0  0  0
   -0.6672    4.7475    0.0000 O   0  0  0  0  0  0  0  0  0  0  0  0
   -3.0888    1.2754    0.0000 C   0  0  0  0  0  0  0  0  0  0  0  0
   -4.5504    1.9261    0.0000 C   0  0  0  0  0  0  0  0  0  0  0  0
   -5.8449    0.9857    0.0000 C   0  0  0  0  0  0  0  0  0  0  0  0
   -7.3065    1.6365    0.0000 N   0  0  0  0  0  0  0  0  0  0  0  0
   -8.6010    0.6960    0.0000 C   0  0  0  0  0  0  0  0  0  0  0  0
  -10.0626    1.3468    0.0000 C   0  0  0  0  0  0  0  0  0  0  0  0
  -10.2299    2.9380    0.0000 N   0  0  0  0  0  0  0  0  0  0  0  0
   -8.9355    3.8785    0.0000 C   0  0  0  0  0  0  0  0  0  0  0  0
   -7.4738    3.2277    0.0000 C   0  0  0  0  0  0  0  0  0  0  0  0
  -11.6916    3.5888    0.0000 C   0  0  0  0  0  0  0  0  0  0  0  0
   -0.3327    1.5650    0.0000 C   0  0  0  0  0  0  0  0  0  0  0  0
    1.0530    2.3650    0.0000 C   0  0  0  0  0  0  0  0  0  0  0  0
    2.2420    1.2944    0.0000 C   0  0  0  0  0  0  0  0  0  0  0  0
    1.5912   -0.1672    0.0000 C   0  0  0  0  0  0  0  0  0  0  0  0
    0.0000    0.0000    0.0000 C   0  0  0  0  0  0  0  0  0  0  0  0
    0.6508   -1.4617    0.0000 C   0  0  0  0  0  0  0  0  0  0  0  0
    0.2928    8.8704    0.0000 F   0  0  0  0  0  0  0  0  0  0  0  0
   -1.3361   11.1124    0.0000 F   0  0  0  0  0  0  0  0  0  0  0  0
    0.1255   10.4617    0.0000 F   0  0  0  0  0  0  0  0  0  0  0  0
    3.8070    1.6271    0.0000 N   0  3  0  0  0  0  0  0  0  0  0  0
    4.3015    3.1488    0.0000 C   0  0  0  0  0  0  0  0  0  0  0  0
    5.8665    3.4814    0.0000 C   0  0  0  0  0  0  0  0  0  0  0  0
    6.9371    2.2924    0.0000 C   0  0  0  0  0  0  0  0  0  0  0  0
    6.4427    0.7707    0.0000 C   0  0  0  0  0  0  0  0  0  0  0  0
    4.8777    0.4381    0.0000 C   0  5  0  0  0  0  0  0  0  0  0  0
    8.5022    2.6251    0.0000 Cl  0  0  0  0  0  0  0  0  0  0  0  0
    6.3609    5.0031    0.0000 F   0  0  0  0  0  0  0  0  0  0  0  0
  1  2  1  0  0  0  0
  1  6  2  0  0  0  0
  1  7  1  0  0  0  0
  2  3  2  0  0  0  0
  2  8  1  0  0  0  0
  3  4  1  0  0  0  0
  4  5  2  0  0  0  0
  4  9  1  0  0  0  0
  5  6  1  0  0  0  0
  8 29  1  0  0  0  0
  8 30  1  0  0  0  0
  8 31  1  0  0  0  0
  9 10  1  0  0  0  0
 10 11  1  0  0  0  0
 10 12  2  0  0  0  0
 11 13  1  0  0  0  0
 23 11  1  6  0  0  0
 13 14  1  0  0  0  0
 14 15  1  0  0  0  0
 16 15  1  6  0  0  0
 16 17  1  0  0  0  0
 16 21  1  0  0  0  0
 17 18  1  0  0  0  0
 18 19  1  0  0  0  0
 19 20  1  0  0  0  0
 19 22  1  1  0  0  0
 20 21  1  0  0  0  0
 23 24  1  0  0  0  0
 23 27  1  0  0  0  0
 25 24  1  1  0  0  0
 25 26  1  0  0  0  0
 25 32  1  0  0  0  0
 26 27  1  0  0  0  0
 26 28  1  6  0  0  0
 27 28  1  6  0  0  0
 32 33  1  6  0  0  0
 32 37  1  0  0  0  0
 33 34  2  0  0  0  0
 34 35  1  0  0  0  0
 34 39  1  0  0  0  0
 35 36  2  0  0  0  0
 35 38  1  0  0  0  0
 36 37  1  0  0  0  0
M  CHG  2  32   1  37  -1
M  END
> <Acceptable>
false

> <IC50>
<<1

$$$$

Generated by Molecular Materials Informatics

 36 40  0  0  0  0  0  0  0  0999 V2000
   -3.9250    9.2315    0.0000 C   0  0  0  0  0  0  0  0  0  0  0  0
   -2.4633    8.5808    0.0000 C   0  0  0  0  0  0  0  0  0  0  0  0
   -2.2961    6.9895    0.0000 C   0  0  0  0  0  0  0  0  0  0  0  0
   -3.5905    6.0491    0.0000 C   0  0  0  0  0  0  0  0  0  0  0  0
   -5.0522    6.6998    0.0000 C   0  0  0  0  0  0  0  0  0  0  0  0
   -5.2194    8.2911    0.0000 C   0  0  0  0  0  0  0  0  0  0  0  0
   -4.0922   10.8228    0.0000 F   0  0  0  0  0  0  0  0  0  0  0  0
   -1.1689    9.5212    0.0000 C   0  0  0  0  0  0  0  0  0  0  0  0
   -3.4233    4.4578    0.0000 N   0  0  0  0  0  0  0  0  0  0  0  0
   -1.9616    3.8070    0.0000 C   0  0  0  0  0  0  0  0  0  0  0  0
   -1.7943    2.2158    0.0000 N   0  0  0  0  0  0  0  0  0  0  0  0
   -0.6672    4.7475    0.0000 O   0  0  0  0  0  0  0  0  0  0  0  0
   -3.0888    1.2754    0.0000 C   0  0  0  0  0  0  0  0  0  0  0  0
   -4.5504    1.9261    0.0000 C   0  0  0  0  0  0  0  0  0  0  0  0
   -5.8449    0.9857    0.0000 C   0  0  0  0  0  0  0  0  0  0  0  0
   -7.3065    1.6365    0.0000 N   0  0  0  0  0  0  0  0  0  0  0  0
   -8.6010    0.6960    0.0000 C   0  0  0  0  0  0  0  0  0  0  0  0
  -10.0626    1.3468    0.0000 C   0  0  0  0  0  0  0  0  0  0  0  0
  -10.2299    2.9380    0.0000 N   0  0  0  0  0  0  0  0  0  0  0  0
   -8.9355    3.8785    0.0000 C   0  0  0  0  0  0  0  0  0  0  0  0
   -7.4738    3.2277    0.0000 C   0  0  0  0  0  0  0  0  0  0  0  0
  -11.6916    3.5888    0.0000 C   0  0  0  0  0  0  0  0  0  0  0  0
   -0.3327    1.5650    0.0000 C   0  0  0  0  0  0  0  0  0  0  0  0
    1.0530    2.3650    0.0000 C   0  0  0  0  0  0  0  0  0  0  0  0
    2.2420    1.2944    0.0000 C   0  0  0  0  0  0  0  0  0  0  0  0
    1.5912   -0.1672    0.0000 C   0  0  0  0  0  0  0  0  0  0  0  0
    0.0000    0.0000    0.0000 C   0  0  0  0  0  0  0  0  0  0  0  0
    0.6508   -1.4617    0.0000 C   0  0  0  0  0  0  0  0  0  0  0  0
    0.2928    8.8704    0.0000 F   0  0  0  0  0  0  0  0  0  0  0  0
   -1.3361   11.1124    0.0000 F   0  0  0  0  0  0  0  0  0  0  0  0
    0.1255   10.4617    0.0000 F   0  0  0  0  0  0  0  0  0  0  0  0
    3.8070    1.6271    0.0000 S   0  0  0  0  0  0  0  0  0  0  0  0
    4.4578    3.0888    0.0000 C   0  0  0  0  0  0  0  0  0  0  0  0
    6.0491    2.9215    0.0000 C   0  0  0  0  0  0  0  0  0  0  0  0
    6.3817    1.3565    0.0000 C   0  0  0  0  0  0  0  0  0  0  0  0
    4.9961    0.5565    0.0000 C   0  0  0  0  0  0  0  0  0  0  0  0
  1  2  1  0  0  0  0
  1  6  2  0  0  0  0
  1  7  1  0  0  0  0
  2  3  2  0  0  0  0
  2  8  1  0  0  0  0
  3  4  1  0  0  0  0
  4  5  2  0  0  0  0
  4  9  1  0  0  0  0
  5  6  1  0  0  0  0
  8 29  1  0  0  0  0
  8 30  1  0  0  0  0
  8 31  1  0  0  0  0
  9 10  1  0  0  0  0
 10 11  1  0  0  0  0
 10 12  2  0  0  0  0
 11 13  1  0  0  0  0
 23 11  1  6  0  0  0
 13 14  1  0  0  0  0
 14 15  1  0  0  0  0
 16 15  1  6  0  0  0
 16 17  1  0  0  0  0
 16 21  1  0  0  0  0
 17 18  1  0  0  0  0
 18 19  1  0  0  0  0
 19 20  1  0  0  0  0
 19 22  1  1  0  0  0
 20 21  1  0  0  0  0
 23 24  1  0  0  0  0
 23 27  1  0  0  0  0
 24 25  1  0  0  0  0
 25 26  1  0  0  0  0
 25 32  2  0  0  0  0
 26 27  1  0  0  0  0
 26 28  1  6  0  0  0
 27 28  1  6  0  0  0
 32 33  1  0  0  0  0
 32 36  1  0  0  0  0
 33 34  2  0  0  0  0
 34 35  1  0  0  0  0
 35 36  2  0  0  0  0
M  END
> <Acceptable>
false

> <IC50>
<<1

$$$$

Generated by Molecular Materials Informatics

 31 35  0  0  0  0  0  0  0  0999 V2000
    0.0000    0.0000    0.0000 C   0  0  0  0  0  0  0  0  0  0  0  0
    0.0000   -1.6000    0.0000 C   0  0  0  0  0  0  0  0  0  0  0  0
    1.3856   -2.4000    0.0000 C   0  0  0  0  0  0  0  0  0  0  0  0
    2.7713   -1.6000    0.0000 N   0  0  0  0  0  0  0  0  0  0  0  0
    2.7713    0.0000    0.0000 C   0  0  0  0  0  0  0  0  0  0  0  0
    1.3856    0.8000    0.0000 C   0  0  0  0  0  0  0  0  0  0  0  0
   -0.1672    1.5912    0.0000 C   0  0  0  0  0  0  0  0  0  0  0  0
   -1.7323    1.9239    0.0000 N   0  0  0  0  0  0  0  0  0  0  0  0
   -2.5323    0.5383    0.0000 C   0  0  0  0  0  0  0  0  0  0  0  0
   -1.4617   -0.6508    0.0000 C   0  0  0  0  0  0  0  0  0  0  0  0
    1.0218    2.6618    0.0000 O   0  0  0  0  0  0  0  0  0  0  0  0
   -1.7943   -2.2158    0.0000 C   0  0  0  0  0  0  0  0  0  0  0  0
   -3.3160   -2.7102    0.0000 C   0  0  0  0  0  0  0  0  0  0  0  0
   -3.6487   -4.2753    0.0000 C   0  0  0  0  0  0  0  0  0  0  0  0
   -2.4596   -5.3459    0.0000 C   0  0  0  0  0  0  0  0  0  0  0  0
   -0.9380   -4.8515    0.0000 C   0  0  0  0  0  0  0  0  0  0  0  0
   -0.6053   -3.2864    0.0000 C   0  0  0  0  0  0  0  0  0  0  0  0
    4.1569   -2.4000    0.0000 C   0  0  0  0  0  0  0  0  0  0  0  0
    4.1569   -4.0000    0.0000 C   0  0  0  0  0  0  0  0  0  0  0  0
    5.5426   -4.8000    0.0000 C   0  0  0  0  0  0  0  0  0  0  0  0
    6.9282   -4.0000    0.0000 C   0  0  0  0  0  0  0  0  0  0  0  0
    6.9282   -2.4000    0.0000 C   0  0  0  0  0  0  0  0  0  0  0  0
    5.5426   -1.6000    0.0000 C   0  0  0  0  0  0  0  0  0  0  0  0
    4.5141   -0.3743    0.0000 O   0  0  0  0  0  0  0  0  0  0  0  0
    6.5710   -0.3743    0.0000 C   0  0  0  0  0  0  0  0  0  0  0  0
    8.1467   -0.6522    0.0000 C   0  0  0  0  0  0  0  0  0  0  0  0
    9.1752    0.5735    0.0000 C   0  0  0  0  0  0  0  0  0  0  0  0
    8.6279    2.0770    0.0000 C   0  0  0  0  0  0  0  0  0  0  0  0
    7.0523    2.3549    0.0000 C   0  0  0  0  0  0  0  0  0  0  0  0
    6.0238    1.1292    0.0000 C   0  0  0  0  0  0  0  0  0  0  0  0
    9.6564    3.3027    0.0000 F   0  0  0  0  0  0  0  0  0  0  0  0
  1  2  1  1  0  0  0
  1  6  1  0  0  0  0
  1  7  1  0  0  0  0
  1 10  1  0  0  0  0
  2  3  1  0  0  0  0
  4  3  1  1  0  0  0
  4  5  1  0  0  0  0
  4 18  1  0  0  0  0
  5  6  1  0  0  0  0
  7  8  1  0  0  0  0
  7 11  2  0  0  0  0
  8  9  1  0  0  0  0
  9 10  1  0  0  0  0
 10 12  1  6  0  0  0
 12 13  1  0  0  0  0
 12 17  2  0  0  0  0
 13 14  2  0  0  0  0
 14 15  1  0  0  0  0
 15 16  2  0  0  0  0
 16 17  1  0  0  0  0
 18 19  1  6  0  0  0
 18 23  1  0  0  0  0
 19 20  1  0  0  0  0
 20 21  1  0  0  0  0
 21 22  1  0  0  0  0
 22 23  1  0  0  0  0
 23 24  1  1  0  0  0
 23 25  1  0  0  0  0
 25 26  1  0  0  0  0
 25 30  1  6  0  0  0
 26 27  1  0  0  0  0
 27 28  1  0  0  0  0
 28 29  1  0  0  0  0
 28 31  1  6  0  0  0
 29 30  1  0  0  0  0
M  END
> <Acceptable>
false

> <IC50>
1.8

$$$$

Generated by Molecular Materials Informatics

 29 33  0  0  0  0  0  0  0  0999 V2000
    0.0000    0.0000    0.0000 C   0  0  0  0  0  0  0  0  0  0  0  0
    0.0000   -1.6000    0.0000 C   0  0  0  0  0  0  0  0  0  0  0  0
    1.3856   -2.4000    0.0000 C   0  0  0  0  0  0  0  0  0  0  0  0
    2.7713   -1.6000    0.0000 N   0  0  0  0  0  0  0  0  0  0  0  0
    2.7713    0.0000    0.0000 C   0  0  0  0  0  0  0  0  0  0  0  0
    1.3856    0.8000    0.0000 C   0  0  0  0  0  0  0  0  0  0  0  0
   -0.1672    1.5912    0.0000 C   0  0  0  0  0  0  0  0  0  0  0  0
   -1.7323    1.9239    0.0000 N   0  0  0  0  0  0  0  0  0  0  0  0
   -2.5323    0.5383    0.0000 C   0  0  0  0  0  0  0  0  0  0  0  0
   -1.4617   -0.6508    0.0000 C   0  0  0  0  0  0  0  0  0  0  0  0
    1.0218    2.6618    0.0000 O   0  0  0  0  0  0  0  0  0  0  0  0
   -1.7943   -2.2158    0.0000 C   0  0  0  0  0  0  0  0  0  0  0  0
   -3.3160   -2.7102    0.0000 C   0  0  0  0  0  0  0  0  0  0  0  0
   -3.6487   -4.2753    0.0000 C   0  0  0  0  0  0  0  0  0  0  0  0
   -2.4596   -5.3459    0.0000 C   0  0  0  0  0  0  0  0  0  0  0  0
   -0.9380   -4.8515    0.0000 C   0  0  0  0  0  0  0  0  0  0  0  0
   -0.6053   -3.2864    0.0000 C   0  0  0  0  0  0  0  0  0  0  0  0
    4.1569   -2.4000    0.0000 C   0  0  0  0  0  0  0  0  0  0  0  0
    4.1569   -4.0000    0.0000 C   0  0  0  0  0  0  0  0  0  0  0  0
    5.5426   -4.8000    0.0000 C   0  0  0  0  0  0  0  0  0  0  0  0
    6.9282   -4.0000    0.0000 C   0  0  0  0  0  0  0  0  0  0  0  0
    6.9282   -2.4000    0.0000 C   0  0  0  0  0  0  0  0  0  0  0  0
    5.5426   -1.6000    0.0000 C   0  0  0  0  0  0  0  0  0  0  0  0
    5.5426    0.0000    0.0000 C   0  0  0  0  0  0  0  0  0  0  0  0
    6.9282    0.8000    0.0000 C   0  0  0  0  0  0  0  0  0  0  0  0
    6.9282    2.4000    0.0000 C   0  0  0  0  0  0  0  0  0  0  0  0
    5.5426    3.2000    0.0000 C   0  0  0  0  0  0  0  0  0  0  0  0
    4.1569    2.4000    0.0000 C   0  0  0  0  0  0  0  0  0  0  0  0
    4.1569    0.8000    0.0000 C   0  0  0  0  0  0  0  0  0  0  0  0
  1  2  1  1  0  0  0
  1  6  1  0  0  0  0
  1  7  1  0  0  0  0
  1 10  1  0  0  0  0
  2  3  1  0  0  0  0
  4  3  1  1  0  0  0
  4  5  1  0  0  0  0
  4 18  1  0  0  0  0
  5  6  1  0  0  0  0
  7  8  1  0  0  0  0
  7 11  2  0  0  0  0
  8  9  1  0  0  0  0
  9 10  1  0  0  0  0
 10 12  1  6  0  0  0
 12 13  1  0  0  0  0
 12 17  2  0  0  0  0
 13 14  2  0  0  0  0
 14 15  1  0  0  0  0
 15 16  2  0  0  0  0
 16 17  1  0  0  0  0
 18 19  1  6  0  0  0
 18 23  1  0  0  0  0
 19 20  1  0  0  0  0
 20 21  1  0  0  0  0
 21 22  1  0  0  0  0
 22 23  1  0  0  0  0
 23 24  1  1  0  0  0
 24 25  1  0  0  0  0
 24 29  2  0  0  0  0
 25 26  2  0  0  0  0
 26 27  1  0  0  0  0
 27 28  2  0  0  0  0
 28 29  1  0  0  0  0
M  END
> <Acceptable>
false

> <IC50>
1.4

$$$$

Generated by Molecular Materials Informatics

 32 36  0  0  0  0  0  0  0  0999 V2000
    0.0000    0.0000    0.0000 C   0  0  0  0  0  0  0  0  0  0  0  0
    0.8000   -1.3856    0.0000 C   0  0  0  0  0  0  0  0  0  0  0  0
    0.0000   -2.7713    0.0000 C   0  0  0  0  0  0  0  0  0  0  0  0
   -1.6000   -2.7713    0.0000 N   0  0  0  0  0  0  0  0  0  0  0  0
   -2.4000   -1.3856    0.0000 C   0  0  0  0  0  0  0  0  0  0  0  0
   -1.6000    0.0000    0.0000 C   0  0  0  0  0  0  0  0  0  0  0  0
   -0.6508    1.4617    0.0000 C   0  0  0  0  0  0  0  0  0  0  0  0
    0.5383    2.5323    0.0000 N   0  0  0  0  0  0  0  0  0  0  0  0
    1.9239    1.7323    0.0000 C   0  0  0  0  0  0  0  0  0  0  0  0
    1.5912    0.1672    0.0000 C   0  0  0  0  0  0  0  0  0  0  0  0
   -2.2158    1.7943    0.0000 O   0  0  0  0  0  0  0  0  0  0  0  0
    2.6618   -1.0218    0.0000 C   0  0  0  0  0  0  0  0  0  0  0  0
    4.2269   -0.6891    0.0000 C   0  0  0  0  0  0  0  0  0  0  0  0
    5.2975   -1.8782    0.0000 C   0  0  0  0  0  0  0  0  0  0  0  0
    4.8031   -3.3998    0.0000 C   0  0  0  0  0  0  0  0  0  0  0  0
    3.2380   -3.7325    0.0000 C   0  0  0  0  0  0  0  0  0  0  0  0
    2.1674   -2.5435    0.0000 C   0  0  0  0  0  0  0  0  0  0  0  0
   -2.4000   -4.1569    0.0000 C   0  0  0  0  0  0  0  0  0  0  0  0
   -1.6000   -5.5426    0.0000 C   0  0  0  0  0  0  0  0  0  0  0  0
   -2.4000   -6.9282    0.0000 O   0  0  0  0  0  0  0  0  0  0  0  0
   -4.0000   -6.9282    0.0000 C   0  0  0  0  0  0  0  0  0  0  0  0
   -4.8000   -5.5426    0.0000 C   0  0  0  0  0  0  0  0  0  0  0  0
   -4.0000   -4.1569    0.0000 C   0  0  0  0  0  0  0  0  0  0  0  0
   -3.7222   -2.5812    0.0000 O   0  0  0  0  0  0  0  0  0  0  0  0
   -5.5035   -3.6097    0.0000 C   0  0  0  0  0  0  0  0  0  0  0  0
   -6.7292   -4.6382    0.0000 C   0  0  0  0  0  0  0  0  0  0  0  0
   -8.2327   -4.0909    0.0000 C   0  0  0  0  0  0  0  0  0  0  0  0
   -8.5105   -2.5152    0.0000 C   0  0  0  0  0  0  0  0  0  0  0  0
   -7.2849   -1.4868    0.0000 C   0  0  0  0  0  0  0  0  0  0  0  0
   -5.7813   -2.0340    0.0000 C   0  0  0  0  0  0  0  0  0  0  0  0
  -10.0140   -1.9680    0.0000 F   0  0  0  0  0  0  0  0  0  0  0  0
    5.8737   -4.5889    0.0000 F   0  0  0  0  0  0  0  0  0  0  0  0
  1  2  1  6  0  0  0
  1  6  1  0  0  0  0
  1  7  1  0  0  0  0
  1 10  1  0  0  0  0
  2  3  1  0  0  0  0
  4  3  1  6  0  0  0
  4  5  1  0  0  0  0
  4 18  1  0  0  0  0
  5  6  1  0  0  0  0
  7  8  1  0  0  0  0
  7 11  2  0  0  0  0
  8  9  1  0  0  0  0
  9 10  1  0  0  0  0
 10 12  1  1  0  0  0
 12 13  1  0  0  0  0
 12 17  2  0  0  0  0
 13 14  2  0  0  0  0
 14 15  1  0  0  0  0
 15 16  2  0  0  0  0
 15 32  1  0  0  0  0
 16 17  1  0  0  0  0
 18 19  1  1  0  0  0
 18 23  1  0  0  0  0
 19 20  1  0  0  0  0
 20 21  1  0  0  0  0
 21 22  1  0  0  0  0
 22 23  1  0  0  0  0
 23 24  1  6  0  0  0
 23 25  1  0  0  0  0
 25 26  1  0  0  0  0
 25 30  1  1  0  0  0
 26 27  1  0  0  0  0
 27 28  1  0  0  0  0
 28 29  1  0  0  0  0
 28 31  1  1  0  0  0
 29 30  1  0  0  0  0
M  END
> <Acceptable>
false

> <IC50>
>24

$$$$

Generated by Molecular Materials Informatics

 34 39  0  0  0  0  0  0  0  0999 V2000
   -4.2211   -0.8212    0.0000 C   0  0  0  0  0  0  0  0  0  0  0  0
   -2.8219    0.4411    0.0000 C   0  0  0  0  0  0  0  0  0  0  0  0
   -4.0999    0.2630    0.0000 C   0  0  0  0  0  0  0  0  0  0  0  0
   -2.7826    1.4919    0.0000 C   0  0  0  0  0  0  0  0  0  0  0  0
   -5.4786    0.1681    0.0000 N   0  0  0  0  0  0  0  0  0  0  0  0
   -1.5217    0.4944    0.0000 C   0  0  0  0  0  0  0  0  0  0  0  0
   -4.0444   -2.5223    0.0000 C   0  0  0  0  0  0  0  0  0  0  0  0
   -3.6408   -1.1737    0.0000 C   0  0  0  0  0  0  0  0  0  0  0  0
   -7.0076    0.6394    0.0000 C   0  0  0  0  0  0  0  0  0  0  0  0
   -8.1802   -0.4492    0.0000 C   0  0  0  0  0  0  0  0  0  0  0  0
   -9.7093    0.0221    0.0000 C   0  0  0  0  0  0  0  0  0  0  0  0
  -10.0657    1.5819    0.0000 N   0  0  0  0  0  0  0  0  0  0  0  0
  -11.5947    2.0531    0.0000 C   0  0  0  0  0  0  0  0  0  0  0  0
  -11.9511    3.6130    0.0000 C   0  0  0  0  0  0  0  0  0  0  0  0
  -13.3060    4.4639    0.0000 C   0  0  0  0  0  0  0  0  0  0  0  0
  -12.4551    5.8188    0.0000 C   0  0  0  0  0  0  0  0  0  0  0  0
  -11.1001    4.9679    0.0000 C   0  0  0  0  0  0  0  0  0  0  0  0
  -10.8819   -1.0665    0.0000 C   0  0  0  0  0  0  0  0  0  0  0  0
  -10.5255   -2.6263    0.0000 C   0  0  0  0  0  0  0  0  0  0  0  0
  -11.6981   -3.7148    0.0000 C   0  0  0  0  0  0  0  0  0  0  0  0
  -13.2272   -3.2436    0.0000 C   0  0  0  0  0  0  0  0  0  0  0  0
  -13.5835   -1.6838    0.0000 C   0  0  0  0  0  0  0  0  0  0  0  0
  -12.4109   -0.5952    0.0000 C   0  0  0  0  0  0  0  0  0  0  0  0
  -12.7673    0.9646    0.0000 O   0  0  0  0  0  0  0  0  0  0  0  0
    0.0000    0.0000    0.0000 N   0  0  0  0  0  0  0  0  0  0  0  0
    1.2944    0.9405    0.0000 C   0  0  0  0  0  0  0  0  0  0  0  0
    2.5889    0.0000    0.0000 N   0  0  0  0  0  0  0  0  0  0  0  0
    2.0944   -1.5217    0.0000 C   0  0  0  0  0  0  0  0  0  0  0  0
    0.4944   -1.5217    0.0000 C   0  0  0  0  0  0  0  0  0  0  0  0
   -0.3056   -2.9073    0.0000 C   0  0  0  0  0  0  0  0  0  0  0  0
    0.4944   -4.2930    0.0000 C   0  0  0  0  0  0  0  0  0  0  0  0
    2.0944   -4.2930    0.0000 C   0  0  0  0  0  0  0  0  0  0  0  0
    2.8944   -2.9073    0.0000 C   0  0  0  0  0  0  0  0  0  0  0  0
    1.2944    2.5405    0.0000 C   0  0  0  0  0  0  0  0  0  0  0  0
  1  2  1  0  0  0  0
  1  5  1  0  0  0  0
  1  7  1  6  0  0  0
  2  6  1  0  0  0  0
  3  4  1  1  0  0  0
  3  5  1  0  0  0  0
  3  8  1  0  0  0  0
  4  6  1  0  0  0  0
  5  9  1  6  0  0  0
  6 25  1  1  0  0  0
  7  8  1  0  0  0  0
  9 10  1  0  0  0  0
 10 11  1  0  0  0  0
 11 12  1  1  0  0  0
 11 18  1  0  0  0  0
 12 13  1  0  0  0  0
 13 14  1  0  0  0  0
 13 24  2  0  0  0  0
 14 15  1  0  0  0  0
 14 17  1  0  0  0  0
 15 16  1  0  0  0  0
 16 17  1  0  0  0  0
 18 19  1  0  0  0  0
 18 23  2  0  0  0  0
 19 20  2  0  0  0  0
 20 21  1  0  0  0  0
 21 22  2  0  0  0  0
 22 23  1  0  0  0  0
 25 26  1  0  0  0  0
 25 29  1  0  0  0  0
 26 27  2  0  0  0  0
 26 34  1  0  0  0  0
 27 28  1  0  0  0  0
 28 29  1  0  0  0  0
 28 33  2  0  0  0  0
 29 30  2  0  0  0  0
 30 31  1  0  0  0  0
 31 32  2  0  0  0  0
 32 33  1  0  0  0  0
M  END
> <Acceptable>
false

> <IC50>
<<1.0

$$$$

Generated by Molecular Materials Informatics

 34 38  0  0  0  0  0  0  0  0999 V2000
   -4.0000    1.3856    0.0000 C   0  0  0  0  0  0  0  0  0  0  0  0
   -2.4000    1.3856    0.0000 C   0  0  0  0  0  0  0  0  0  0  0  0
   -4.0000   -1.3856    0.0000 C   0  0  0  0  0  0  0  0  0  0  0  0
   -2.4000   -1.3856    0.0000 C   0  0  0  0  0  0  0  0  0  0  0  0
   -4.8000    0.0000    0.0000 N   0  0  0  0  0  0  0  0  0  0  0  0
   -1.6000    0.0000    0.0000 C   0  0  0  0  0  0  0  0  0  0  0  0
   -6.4000    0.0000    0.0000 C   0  0  0  0  0  0  0  0  0  0  0  0
   -7.2000   -1.3856    0.0000 C   0  0  0  0  0  0  0  0  0  0  0  0
   -8.8000   -1.3856    0.0000 C   0  0  0  0  0  0  0  0  0  0  0  0
   -9.6000    0.0000    0.0000 N   0  0  0  0  0  0  0  0  0  0  0  0
  -11.2000    0.0000    0.0000 C   0  0  0  0  0  0  0  0  0  0  0  0
  -12.0000    1.3856    0.0000 C   0  0  0  0  0  0  0  0  0  0  0  0
  -13.5455    1.7997    0.0000 C   0  0  0  0  0  0  0  0  0  0  0  0
  -13.1314    3.3452    0.0000 C   0  0  0  0  0  0  0  0  0  0  0  0
  -11.5859    2.9311    0.0000 C   0  0  0  0  0  0  0  0  0  0  0  0
   -9.6000   -2.7713    0.0000 C   0  0  0  0  0  0  0  0  0  0  0  0
   -8.8000   -4.1569    0.0000 C   0  0  0  0  0  0  0  0  0  0  0  0
   -9.6000   -5.5426    0.0000 C   0  0  0  0  0  0  0  0  0  0  0  0
  -11.2000   -5.5426    0.0000 C   0  0  0  0  0  0  0  0  0  0  0  0
  -12.0000   -4.1569    0.0000 C   0  0  0  0  0  0  0  0  0  0  0  0
  -11.2000   -2.7713    0.0000 C   0  0  0  0  0  0  0  0  0  0  0  0
  -12.0000   -1.3856    0.0000 O   0  0  0  0  0  0  0  0  0  0  0  0
    0.0000    0.0000    0.0000 N   0  0  0  0  0  0  0  0  0  0  0  0
    0.9405    1.2944    0.0000 N   0  0  0  0  0  0  0  0  0  0  0  0
    2.4621    0.8000    0.0000 C   0  0  0  0  0  0  0  0  0  0  0  0
    2.4621   -0.8000    0.0000 N   0  0  0  0  0  0  0  0  0  0  0  0
    0.9405   -1.2944    0.0000 C   0  0  0  0  0  0  0  0  0  0  0  0
    3.7566    1.7405    0.0000 C   0  0  0  0  0  0  0  0  0  0  0  0
    5.2182    1.0897    0.0000 C   0  0  0  0  0  0  0  0  0  0  0  0
    6.5127    2.0301    0.0000 C   0  0  0  0  0  0  0  0  0  0  0  0
    7.9743    1.3794    0.0000 C   0  0  0  0  0  0  0  0  0  0  0  0
    8.1416   -0.2119    0.0000 C   0  0  0  0  0  0  0  0  0  0  0  0
    6.8472   -1.1523    0.0000 C   0  0  0  0  0  0  0  0  0  0  0  0
    5.3855   -0.5016    0.0000 C   0  0  0  0  0  0  0  0  0  0  0  0
  1  2  1  0  0  0  0
  1  5  1  0  0  0  0
  2  6  1  0  0  0  0
  3  4  1  0  0  0  0
  3  5  1  0  0  0  0
  4  6  1  0  0  0  0
  5  7  1  1  0  0  0
  6 23  1  6  0  0  0
  7  8  1  0  0  0  0
  8  9  1  0  0  0  0
  9 10  1  1  0  0  0
  9 16  1  0  0  0  0
 10 11  1  0  0  0  0
 11 12  1  0  0  0  0
 11 22  2  0  0  0  0
 12 13  1  0  0  0  0
 12 15  1  0  0  0  0
 13 14  1  0  0  0  0
 14 15  1  0  0  0  0
 16 17  1  0  0  0  0
 16 21  2  0  0  0  0
 17 18  2  0  0  0  0
 18 19  1  0  0  0  0
 19 20  2  0  0  0  0
 20 21  1  0  0  0  0
 23 24  1  0  0  0  0
 23 27  1  0  0  0  0
 24 25  2  0  0  0  0
 25 26  1  0  0  0  0
 25 28  1  0  0  0  0
 26 27  2  0  0  0  0
 28 29  1  0  0  0  0
 29 30  1  0  0  0  0
 29 34  2  0  0  0  0
 30 31  2  0  0  0  0
 31 32  1  0  0  0  0
 32 33  2  0  0  0  0
 33 34  1  0  0  0  0
M  END
> <Acceptable>
false

> <IC50>
<<1.0

$$$$

Generated by Molecular Materials Informatics

 34 38  0  0  0  0  0  0  0  0999 V2000
   -4.0000    1.3856    0.0000 C   0  0  0  0  0  0  0  0  0  0  0  0
   -2.4000    1.3856    0.0000 C   0  0  0  0  0  0  0  0  0  0  0  0
   -4.0000   -1.3856    0.0000 C   0  0  0  0  0  0  0  0  0  0  0  0
   -2.4000   -1.3856    0.0000 C   0  0  0  0  0  0  0  0  0  0  0  0
   -4.8000    0.0000    0.0000 N   0  0  0  0  0  0  0  0  0  0  0  0
   -1.6000    0.0000    0.0000 C   0  0  0  0  0  0  0  0  0  0  0  0
   -6.4000    0.0000    0.0000 C   0  0  0  0  0  0  0  0  0  0  0  0
   -7.2000   -1.3856    0.0000 C   0  0  0  0  0  0  0  0  0  0  0  0
   -8.8000   -1.3856    0.0000 C   0  0  0  0  0  0  0  0  0  0  0  0
   -9.6000    0.0000    0.0000 N   0  0  0  0  0  0  0  0  0  0  0  0
  -11.2000    0.0000    0.0000 C   0  0  0  0  0  0  0  0  0  0  0  0
  -12.0000    1.3856    0.0000 C   0  0  0  0  0  0  0  0  0  0  0  0
  -13.5455    1.7997    0.0000 C   0  0  0  0  0  0  0  0  0  0  0  0
  -13.1314    3.3452    0.0000 C   0  0  0  0  0  0  0  0  0  0  0  0
  -11.5859    2.9311    0.0000 C   0  0  0  0  0  0  0  0  0  0  0  0
   -9.6000   -2.7713    0.0000 C   0  0  0  0  0  0  0  0  0  0  0  0
   -8.8000   -4.1569    0.0000 C   0  0  0  0  0  0  0  0  0  0  0  0
   -9.6000   -5.5426    0.0000 C   0  0  0  0  0  0  0  0  0  0  0  0
  -11.2000   -5.5426    0.0000 C   0  0  0  0  0  0  0  0  0  0  0  0
  -12.0000   -4.1569    0.0000 C   0  0  0  0  0  0  0  0  0  0  0  0
  -11.2000   -2.7713    0.0000 C   0  0  0  0  0  0  0  0  0  0  0  0
  -12.0000   -1.3856    0.0000 O   0  0  0  0  0  0  0  0  0  0  0  0
    0.0000    0.0000    0.0000 N   0  0  0  0  0  0  0  0  0  0  0  0
    0.9405    1.2944    0.0000 N   0  0  0  0  0  0  0  0  0  0  0  0
    2.4621    0.8000    0.0000 C   0  0  0  0  0  0  0  0  0  0  0  0
    2.4621   -0.8000    0.0000 O   0  0  0  0  0  0  0  0  0  0  0  0
    0.9405   -1.2944    0.0000 C   0  0  0  0  0  0  0  0  0  0  0  0
    3.7566    1.7405    0.0000 C   0  0  0  0  0  0  0  0  0  0  0  0
    5.2182    1.0897    0.0000 C   0  0  0  0  0  0  0  0  0  0  0  0
    6.5127    2.0301    0.0000 C   0  0  0  0  0  0  0  0  0  0  0  0
    7.9743    1.3794    0.0000 C   0  0  0  0  0  0  0  0  0  0  0  0
    8.1416   -0.2119    0.0000 C   0  0  0  0  0  0  0  0  0  0  0  0
    6.8472   -1.1523    0.0000 C   0  0  0  0  0  0  0  0  0  0  0  0
    5.3855   -0.5016    0.0000 C   0  0  0  0  0  0  0  0  0  0  0  0
  1  2  1  0  0  0  0
  1  5  1  0  0  0  0
  6  2  1  6  0  0  0
  3  4  1  0  0  0  0
  3  5  1  0  0  0  0
  4  6  1  0  0  0  0
  5  7  1  1  0  0  0
  6 23  1  0  0  0  0
  7  8  1  0  0  0  0
  8  9  1  0  0  0  0
  9 10  1  1  0  0  0
  9 16  1  0  0  0  0
 10 11  1  0  0  0  0
 11 12  1  0  0  0  0
 11 22  2  0  0  0  0
 12 13  1  0  0  0  0
 12 15  1  0  0  0  0
 13 14  1  0  0  0  0
 14 15  1  0  0  0  0
 16 17  1  0  0  0  0
 16 21  2  0  0  0  0
 17 18  2  0  0  0  0
 18 19  1  0  0  0  0
 19 20  2  0  0  0  0
 20 21  1  0  0  0  0
 23 24  1  0  0  0  0
 23 27  1  1  0  0  0
 24 25  2  0  0  0  0
 25 26  1  0  0  0  0
 25 28  1  0  0  0  0
 26 27  1  0  0  0  0
 28 29  1  0  0  0  0
 29 30  1  0  0  0  0
 29 34  2  0  0  0  0
 30 31  2  0  0  0  0
 31 32  1  0  0  0  0
 32 33  2  0  0  0  0
 33 34  1  0  0  0  0
M  END
> <Acceptable>
false

> <IC50>
<<1.0

$$$$

Generated by Molecular Materials Informatics

 33 36  0  0  0  0  0  0  0  0999 V2000
    4.1569    2.4000    0.0000 C   0  0  0  0  0  0  0  0  0  0  0  0
    5.5426    3.2000    0.0000 C   0  0  0  0  0  0  0  0  0  0  0  0
    5.5426    0.0000    0.0000 C   0  0  0  0  0  0  0  0  0  0  0  0
    6.9282    0.8000    0.0000 C   0  0  0  0  0  0  0  0  0  0  0  0
    4.1569    0.8000    0.0000 N   0  0  0  0  0  0  0  0  0  0  0  0
    6.9282    2.4000    0.0000 C   0  0  0  0  0  0  0  0  0  0  0  0
    2.7713    0.0000    0.0000 C   0  0  0  0  0  0  0  0  0  0  0  0
    1.3856    0.8000    0.0000 C   0  0  0  0  0  0  0  0  0  0  0  0
    0.0000    0.0000    0.0000 C   0  0  0  0  0  0  0  0  0  0  0  0
    0.0000   -1.6000    0.0000 N   0  0  0  0  0  0  0  0  0  0  0  0
   -1.3856   -2.4000    0.0000 C   0  0  0  0  0  0  0  0  0  0  0  0
   -1.3856   -4.0000    0.0000 C   0  0  0  0  0  0  0  0  0  0  0  0
   -0.2543   -5.1314    0.0000 C   0  0  0  0  0  0  0  0  0  0  0  0
   -1.3856   -6.2627    0.0000 C   0  0  0  0  0  0  0  0  0  0  0  0
   -2.5170   -5.1314    0.0000 C   0  0  0  0  0  0  0  0  0  0  0  0
   -1.3856    0.8000    0.0000 C   0  0  0  0  0  0  0  0  0  0  0  0
   -2.7713    0.0000    0.0000 C   0  0  0  0  0  0  0  0  0  0  0  0
   -4.1569    0.8000    0.0000 C   0  0  0  0  0  0  0  0  0  0  0  0
   -4.1569    2.4000    0.0000 C   0  0  0  0  0  0  0  0  0  0  0  0
   -2.7713    3.2000    0.0000 C   0  0  0  0  0  0  0  0  0  0  0  0
   -1.3856    2.4000    0.0000 C   0  0  0  0  0  0  0  0  0  0  0  0
   -2.7713   -1.6000    0.0000 O   0  0  0  0  0  0  0  0  0  0  0  0
    8.3138    3.2000    0.0000 N   0  0  0  0  0  0  0  0  0  0  0  0
    9.6995    2.4000    0.0000 C   0  0  0  0  0  0  0  0  0  0  0  0
   11.0851    3.2000    0.0000 C   0  0  0  0  0  0  0  0  0  0  0  0
   12.4708    2.4000    0.0000 C   0  0  0  0  0  0  0  0  0  0  0  0
   13.8564    3.2000    0.0000 C   0  0  0  0  0  0  0  0  0  0  0  0
   15.2420    2.4000    0.0000 C   0  0  0  0  0  0  0  0  0  0  0  0
   15.2420    0.8000    0.0000 C   0  0  0  0  0  0  0  0  0  0  0  0
   13.8564    0.0000    0.0000 C   0  0  0  0  0  0  0  0  0  0  0  0
   12.4708    0.8000    0.0000 C   0  0  0  0  0  0  0  0  0  0  0  0
   16.6277    0.0000    0.0000 F   0  0  0  0  0  0  0  0  0  0  0  0
    9.6995    0.8000    0.0000 O   0  0  0  0  0  0  0  0  0  0  0  0
  1  2  1  0  0  0  0
  1  5  1  0  0  0  0
  2  6  1  0  0  0  0
  3  4  1  0  0  0  0
  3  5  1  0  0  0  0
  4  6  1  0  0  0  0
  5  7  1  1  0  0  0
  6 23  1  6  0  0  0
  7  8  1  0  0  0  0
  8  9  1  0  0  0  0
  9 10  1  6  0  0  0
  9 16  1  0  0  0  0
 10 11  1  0  0  0  0
 11 12  1  0  0  0  0
 11 22  2  0  0  0  0
 12 13  1  0  0  0  0
 12 15  1  0  0  0  0
 13 14  1  0  0  0  0
 14 15  1  0  0  0  0
 16 17  1  0  0  0  0
 16 21  2  0  0  0  0
 17 18  2  0  0  0  0
 18 19  1  0  0  0  0
 19 20  2  0  0  0  0
 20 21  1  0  0  0  0
 23 24  1  0  0  0  0
 24 25  1  0  0  0  0
 24 33  2  0  0  0  0
 25 26  1  0  0  0  0
 26 27  1  0  0  0  0
 26 31  2  0  0  0  0
 27 28  2  0  0  0  0
 28 29  1  0  0  0  0
 29 30  2  0  0  0  0
 29 32  1  0  0  0  0
 30 31  1  0  0  0  0
M  END
> <Acceptable>
false

> <IC50>
<<1.0

$$$$

Generated by Molecular Materials Informatics

 37 40  0  0  0  0  0  0  0  0999 V2000
   -2.7713    4.8000    0.0000 C   0  0  0  0  0  0  0  0  0  0  0  0
   -4.1569    4.0000    0.0000 C   0  0  0  0  0  0  0  0  0  0  0  0
   -5.5426    4.8000    0.0000 C   0  0  0  0  0  0  0  0  0  0  0  0
   -5.5426    6.4000    0.0000 C   0  0  0  0  0  0  0  0  0  0  0  0
   -4.1569    7.2000    0.0000 C   0  0  0  0  0  0  0  0  0  0  0  0
   -2.7713    6.4000    0.0000 C   0  0  0  0  0  0  0  0  0  0  0  0
   -6.9282    7.2000    0.0000 C   0  0  0  0  0  0  0  0  0  0  0  0
   -1.3856    4.0000    0.0000 C   0  0  0  0  0  0  0  0  0  0  0  0
   -8.3138    6.4000    0.0000 N   0  0  0  0  0  0  0  0  0  0  0  0
   -6.9282    8.8000    0.0000 N   0  0  0  0  0  0  0  0  0  0  0  0
   -5.5426    9.6000    0.0000 C   0  0  0  0  0  0  0  0  0  0  0  0
   -8.3138    9.6000    0.0000 C   0  0  0  0  0  0  0  0  0  0  0  0
    0.0000    4.8000    0.0000 O   0  0  0  0  0  0  0  0  0  0  0  0
   -1.3856    2.4000    0.0000 N   0  0  0  0  0  0  0  0  0  0  0  0
    0.0000    1.6000    0.0000 C   0  0  0  0  0  0  0  0  0  0  0  0
    1.3856    2.4000    0.0000 C   0  0  0  0  0  0  0  0  0  0  0  0
    2.7713    1.6000    0.0000 C   0  0  0  0  0  0  0  0  0  0  0  0
    2.7713    0.0000    0.0000 C   0  0  0  0  0  0  0  0  0  0  0  0
    1.3856   -0.8000    0.0000 C   0  0  0  0  0  0  0  0  0  0  0  0
    0.0000    0.0000    0.0000 C   0  0  0  0  0  0  0  0  0  0  0  0
    4.1569   -0.8000    0.0000 S   0  0  0  0  0  0  0  0  0  0  0  0
   -1.3856   -0.8000    0.0000 C   0  0  0  0  0  0  0  0  0  0  0  0
   -2.7713    0.0000    0.0000 O   0  0  0  0  0  0  0  0  0  0  0  0
   -1.3856   -2.4000    0.0000 N   0  0  0  0  0  0  0  0  0  0  0  0
   -2.7713   -3.2000    0.0000 C   0  0  0  0  0  0  0  0  0  0  0  0
   -2.7713   -4.8000    0.0000 C   0  0  0  0  0  0  0  0  0  0  0  0
   -4.1569   -5.6000    0.0000 C   0  0  0  0  0  0  0  0  0  0  0  0
   -5.5426   -4.8000    0.0000 C   0  0  0  0  0  0  0  0  0  0  0  0
   -5.5426   -3.2000    0.0000 C   0  0  0  0  0  0  0  0  0  0  0  0
   -4.1569   -2.4000    0.0000 N   0  0  0  0  0  0  0  0  0  0  0  0
   -6.9282   -5.6000    0.0000 Cl  0  0  0  0  0  0  0  0  0  0  0  0
    5.5426    0.0000    0.0000 C   0  0  0  0  0  0  0  0  0  0  0  0
    5.5426    1.6000    0.0000 C   0  0  0  0  0  0  0  0  0  0  0  0
    6.9282    2.4000    0.0000 C   0  0  0  0  0  0  0  0  0  0  0  0
    8.3138    1.6000    0.0000 C   0  0  0  0  0  0  0  0  0  0  0  0
    8.3138    0.0000    0.0000 C   0  0  0  0  0  0  0  0  0  0  0  0
    6.9282   -0.8000    0.0000 C   0  0  0  0  0  0  0  0  0  0  0  0
  1  2  2  0  0  0  0
  1  6  1  0  0  0  0
  1  8  1  0  0  0  0
  2  3  1  0  0  0  0
  3  4  2  0  0  0  0
  4  5  1  0  0  0  0
  4  7  1  0  0  0  0
  5  6  2  0  0  0  0
  7  9  2  0  0  0  0
  7 10  1  0  0  0  0
  8 13  2  0  0  0  0
  8 14  1  0  0  0  0
 10 11  1  0  0  0  0
 10 12  1  0  0  0  0
 14 15  1  0  0  0  0
 15 16  1  0  0  0  0
 15 20  2  0  0  0  0
 16 17  2  0  0  0  0
 17 18  1  0  0  0  0
 18 19  2  0  0  0  0
 18 21  1  0  0  0  0
 19 20  1  0  0  0  0
 20 22  1  0  0  0  0
 21 32  1  0  0  0  0
 22 23  2  0  0  0  0
 22 24  1  0  0  0  0
 24 25  1  0  0  0  0
 25 26  1  0  0  0  0
 25 30  2  0  0  0  0
 26 27  2  0  0  0  0
 27 28  1  0  0  0  0
 28 29  2  0  0  0  0
 28 31  1  0  0  0  0
 29 30  1  0  0  0  0
 32 33  1  0  0  0  0
 32 37  2  0  0  0  0
 33 34  2  0  0  0  0
 34 35  1  0  0  0  0
 35 36  2  0  0  0  0
 36 37  1  0  0  0  0
M  END
> <Acceptable>
false

> <IC50>
<<1

$$$$

Generated by Molecular Materials Informatics

 39 42  0  0  0  0  0  0  0  0999 V2000
    4.8000    2.7713    0.0000 C   0  0  0  0  0  0  0  0  0  0  0  0
    4.0000    4.1569    0.0000 C   0  0  0  0  0  0  0  0  0  0  0  0
    4.8000    5.5426    0.0000 C   0  0  0  0  0  0  0  0  0  0  0  0
    6.4000    5.5426    0.0000 C   0  0  0  0  0  0  0  0  0  0  0  0
    7.2000    4.1569    0.0000 C   0  0  0  0  0  0  0  0  0  0  0  0
    6.4000    2.7713    0.0000 C   0  0  0  0  0  0  0  0  0  0  0  0
    7.2000    6.9282    0.0000 C   0  0  0  0  0  0  0  0  0  0  0  0
    4.0000    1.3856    0.0000 C   0  0  0  0  0  0  0  0  0  0  0  0
    6.4000    8.3138    0.0000 N   0  0  0  0  0  0  0  0  0  0  0  0
    4.8000    0.0000    0.0000 O   0  0  0  0  0  0  0  0  0  0  0  0
    2.4000    1.3856    0.0000 N   0  0  0  0  0  0  0  0  0  0  0  0
    1.6000    0.0000    0.0000 C   0  0  0  0  0  0  0  0  0  0  0  0
    2.4000   -1.3856    0.0000 C   0  0  0  0  0  0  0  0  0  0  0  0
    1.6000   -2.7713    0.0000 C   0  0  0  0  0  0  0  0  0  0  0  0
    0.0000   -2.7713    0.0000 C   0  0  0  0  0  0  0  0  0  0  0  0
   -0.8000   -1.3856    0.0000 C   0  0  0  0  0  0  0  0  0  0  0  0
    0.0000    0.0000    0.0000 C   0  0  0  0  0  0  0  0  0  0  0  0
   -0.8000    1.3856    0.0000 C   0  0  0  0  0  0  0  0  0  0  0  0
    0.0000    2.7713    0.0000 O   0  0  0  0  0  0  0  0  0  0  0  0
   -2.4000    1.3856    0.0000 N   0  0  0  0  0  0  0  0  0  0  0  0
   -3.2000    2.7713    0.0000 C   0  0  0  0  0  0  0  0  0  0  0  0
   -4.8000    2.7713    0.0000 C   0  0  0  0  0  0  0  0  0  0  0  0
   -5.6000    4.1569    0.0000 C   0  0  0  0  0  0  0  0  0  0  0  0
   -4.8000    5.5426    0.0000 C   0  0  0  0  0  0  0  0  0  0  0  0
   -3.2000    5.5426    0.0000 C   0  0  0  0  0  0  0  0  0  0  0  0
   -2.4000    4.1569    0.0000 N   0  0  0  0  0  0  0  0  0  0  0  0
   -5.6000    6.9282    0.0000 Cl  0  0  0  0  0  0  0  0  0  0  0  0
   -0.8000   -4.1569    0.0000 Cl  0  0  0  0  0  0  0  0  0  0  0  0
    8.8000    6.9282    0.0000 N   0  0  0  0  0  0  0  0  0  0  0  0
    9.6000    8.3138    0.0000 C   0  0  0  0  0  0  0  0  0  0  0  0
   11.2000    8.3138    0.0000 C   0  0  0  0  0  0  0  0  0  0  0  0
   12.0000    6.9282    0.0000 C   0  0  0  0  0  0  0  0  0  0  0  0
   11.2000    5.5426    0.0000 C   0  0  0  0  0  0  0  0  0  0  0  0
    9.6000    5.5426    0.0000 C   0  0  0  0  0  0  0  0  0  0  0  0
   12.0000    4.1569    0.0000 C   0  0  0  0  0  0  0  0  0  0  0  0
   13.6000    4.1569    0.0000 O   0  0  0  0  0  0  0  0  0  0  0  0
   14.4000    2.7713    0.0000 C   0  0  0  0  0  0  0  0  0  0  0  0
   11.2000    2.7713    0.0000 O   0  0  0  0  0  0  0  0  0  0  0  0
   16.0000    2.7713    0.0000 C   0  0  0  0  0  0  0  0  0  0  0  0
  1  2  2  0  0  0  0
  1  6  1  0  0  0  0
  1  8  1  0  0  0  0
  2  3  1  0  0  0  0
  3  4  2  0  0  0  0
  4  5  1  0  0  0  0
  4  7  1  0  0  0  0
  5  6  2  0  0  0  0
  7  9  2  0  0  0  0
  7 29  1  0  0  0  0
  8 10  2  0  0  0  0
  8 11  1  0  0  0  0
 11 12  1  0  0  0  0
 12 13  1  0  0  0  0
 12 17  2  0  0  0  0
 13 14  2  0  0  0  0
 14 15  1  0  0  0  0
 15 16  2  0  0  0  0
 15 28  1  0  0  0  0
 16 17  1  0  0  0  0
 17 18  1  0  0  0  0
 18 19  2  0  0  0  0
 18 20  1  0  0  0  0
 20 21  1  0  0  0  0
 21 22  1  0  0  0  0
 21 26  2  0  0  0  0
 22 23  2  0  0  0  0
 23 24  1  0  0  0  0
 24 25  2  0  0  0  0
 24 27  1  0  0  0  0
 25 26  1  0  0  0  0
 29 30  1  0  0  0  0
 29 34  1  0  0  0  0
 30 31  1  0  0  0  0
 31 32  1  0  0  0  0
 32 33  1  0  0  0  0
 33 34  1  0  0  0  0
 33 35  1  6  0  0  0
 35 36  1  0  0  0  0
 35 38  2  0  0  0  0
 36 37  1  0  0  0  0
 37 39  1  0  0  0  0
M  END
> <Acceptable>
false

> <IC50>
<<1

$$$$

Generated by Molecular Materials Informatics

 39 42  0  0  0  0  0  0  0  0999 V2000
    5.5426    0.0000    0.0000 C   0  0  0  0  0  0  0  0  0  0  0  0
    5.5426    1.6000    0.0000 C   0  0  0  0  0  0  0  0  0  0  0  0
    6.9282    2.4000    0.0000 C   0  0  0  0  0  0  0  0  0  0  0  0
    8.3138    1.6000    0.0000 C   0  0  0  0  0  0  0  0  0  0  0  0
    8.3138    0.0000    0.0000 C   0  0  0  0  0  0  0  0  0  0  0  0
    6.9282   -0.8000    0.0000 C   0  0  0  0  0  0  0  0  0  0  0  0
    9.6995    2.4000    0.0000 C   0  0  0  0  0  0  0  0  0  0  0  0
    4.1569   -0.8000    0.0000 C   0  0  0  0  0  0  0  0  0  0  0  0
    9.6995    4.0000    0.0000 N   0  0  0  0  0  0  0  0  0  0  0  0
    4.1569   -2.4000    0.0000 O   0  0  0  0  0  0  0  0  0  0  0  0
    2.7713    0.0000    0.0000 N   0  0  0  0  0  0  0  0  0  0  0  0
    1.3856   -0.8000    0.0000 C   0  0  0  0  0  0  0  0  0  0  0  0
    1.3856   -2.4000    0.0000 C   0  0  0  0  0  0  0  0  0  0  0  0
    0.0000   -3.2000    0.0000 C   0  0  0  0  0  0  0  0  0  0  0  0
   -1.3856   -2.4000    0.0000 C   0  0  0  0  0  0  0  0  0  0  0  0
   -1.3856   -0.8000    0.0000 C   0  0  0  0  0  0  0  0  0  0  0  0
    0.0000    0.0000    0.0000 C   0  0  0  0  0  0  0  0  0  0  0  0
    0.0000    1.6000    0.0000 C   0  0  0  0  0  0  0  0  0  0  0  0
    1.3856    2.4000    0.0000 O   0  0  0  0  0  0  0  0  0  0  0  0
   -1.3856    2.4000    0.0000 N   0  0  0  0  0  0  0  0  0  0  0  0
   -1.3856    4.0000    0.0000 C   0  0  0  0  0  0  0  0  0  0  0  0
   -2.7713    4.8000    0.0000 C   0  0  0  0  0  0  0  0  0  0  0  0
   -2.7713    6.4000    0.0000 C   0  0  0  0  0  0  0  0  0  0  0  0
   -1.3856    7.2000    0.0000 C   0  0  0  0  0  0  0  0  0  0  0  0
    0.0000    6.4000    0.0000 C   0  0  0  0  0  0  0  0  0  0  0  0
    0.0000    4.8000    0.0000 N   0  0  0  0  0  0  0  0  0  0  0  0
   -1.3856    8.8000    0.0000 Cl  0  0  0  0  0  0  0  0  0  0  0  0
   -2.7713   -3.2000    0.0000 Cl  0  0  0  0  0  0  0  0  0  0  0  0
   11.0851    1.6000    0.0000 N   0  0  0  0  0  0  0  0  0  0  0  0
   12.4708    2.4000    0.0000 C   0  0  0  0  0  0  0  0  0  0  0  0
   13.8564    1.6000    0.0000 C   0  0  0  0  0  0  0  0  0  0  0  0
   13.8564    0.0000    0.0000 C   0  0  0  0  0  0  0  0  0  0  0  0
   12.4708   -0.8000    0.0000 C   0  0  0  0  0  0  0  0  0  0  0  0
   11.0851    0.0000    0.0000 C   0  0  0  0  0  0  0  0  0  0  0  0
   15.2421   -0.8000    0.0000 C   0  0  0  0  0  0  0  0  0  0  0  0
   16.6277    0.0000    0.0000 O   0  0  0  0  0  0  0  0  0  0  0  0
   18.0133   -0.8000    0.0000 C   0  0  0  0  0  0  0  0  0  0  0  0
   19.3990    0.0000    0.0000 C   0  0  0  0  0  0  0  0  0  0  0  0
   15.2421   -2.4000    0.0000 O   0  0  0  0  0  0  0  0  0  0  0  0
  1  2  2  0  0  0  0
  1  6  1  0  0  0  0
  1  8  1  0  0  0  0
  2  3  1  0  0  0  0
  3  4  2  0  0  0  0
  4  5  1  0  0  0  0
  4  7  1  0  0  0  0
  5  6  2  0  0  0  0
  7  9  2  0  0  0  0
  7 29  1  0  0  0  0
  8 10  2  0  0  0  0
  8 11  1  0  0  0  0
 11 12  1  0  0  0  0
 12 13  1  0  0  0  0
 12 17  2  0  0  0  0
 13 14  2  0  0  0  0
 14 15  1  0  0  0  0
 15 16  2  0  0  0  0
 15 28  1  0  0  0  0
 16 17  1  0  0  0  0
 17 18  1  0  0  0  0
 18 19  2  0  0  0  0
 18 20  1  0  0  0  0
 20 21  1  0  0  0  0
 21 22  1  0  0  0  0
 21 26  2  0  0  0  0
 22 23  2  0  0  0  0
 23 24  1  0  0  0  0
 24 25  2  0  0  0  0
 24 27  1  0  0  0  0
 25 26  1  0  0  0  0
 29 30  1  0  0  0  0
 29 34  1  0  0  0  0
 30 31  1  0  0  0  0
 31 32  1  0  0  0  0
 32 33  1  0  0  0  0
 32 35  1  0  0  0  0
 33 34  1  0  0  0  0
 35 36  1  0  0  0  0
 35 39  2  0  0  0  0
 36 37  1  0  0  0  0
 37 38  1  0  0  0  0
M  END
> <Acceptable>
false

> <IC50>
<<1

$$$$

Generated by Molecular Materials Informatics

 42 45  0  0  0  0  0  0  0  0999 V2000
   -4.1569    0.8000    0.0000 C   0  0  0  0  0  0  0  0  0  0  0  0
   -4.1569    2.4000    0.0000 C   0  0  0  0  0  0  0  0  0  0  0  0
   -5.5426    3.2000    0.0000 C   0  0  0  0  0  0  0  0  0  0  0  0
   -6.9282    2.4000    0.0000 C   0  0  0  0  0  0  0  0  0  0  0  0
   -6.9282    0.8000    0.0000 C   0  0  0  0  0  0  0  0  0  0  0  0
   -5.5426    0.0000    0.0000 C   0  0  0  0  0  0  0  0  0  0  0  0
   -8.3138    3.2000    0.0000 C   0  0  0  0  0  0  0  0  0  0  0  0
   -2.7713    0.0000    0.0000 C   0  0  0  0  0  0  0  0  0  0  0  0
   -8.3138    4.8000    0.0000 N   0  0  0  0  0  0  0  0  0  0  0  0
   -2.7713   -1.6000    0.0000 O   0  0  0  0  0  0  0  0  0  0  0  0
   -1.3856    0.8000    0.0000 N   0  0  0  0  0  0  0  0  0  0  0  0
    0.0000    0.0000    0.0000 C   0  0  0  0  0  0  0  0  0  0  0  0
    0.0000   -1.6000    0.0000 C   0  0  0  0  0  0  0  0  0  0  0  0
    1.3856   -2.4000    0.0000 C   0  0  0  0  0  0  0  0  0  0  0  0
    2.7713   -1.6000    0.0000 C   0  0  0  0  0  0  0  0  0  0  0  0
    2.7713    0.0000    0.0000 C   0  0  0  0  0  0  0  0  0  0  0  0
    1.3856    0.8000    0.0000 C   0  0  0  0  0  0  0  0  0  0  0  0
    1.3856    2.4000    0.0000 C   0  0  0  0  0  0  0  0  0  0  0  0
    0.0000    3.2000    0.0000 O   0  0  0  0  0  0  0  0  0  0  0  0
    2.7713    3.2000    0.0000 N   0  0  0  0  0  0  0  0  0  0  0  0
    2.7713    4.8000    0.0000 C   0  0  0  0  0  0  0  0  0  0  0  0
    4.1569    5.6000    0.0000 C   0  0  0  0  0  0  0  0  0  0  0  0
    4.1569    7.2000    0.0000 C   0  0  0  0  0  0  0  0  0  0  0  0
    2.7713    8.0000    0.0000 C   0  0  0  0  0  0  0  0  0  0  0  0
    1.3856    7.2000    0.0000 C   0  0  0  0  0  0  0  0  0  0  0  0
    1.3856    5.6000    0.0000 N   0  0  0  0  0  0  0  0  0  0  0  0
    2.7713    9.6000    0.0000 Cl  0  0  0  0  0  0  0  0  0  0  0  0
    4.1569   -2.4000    0.0000 Cl  0  0  0  0  0  0  0  0  0  0  0  0
   -9.6995    2.4000    0.0000 N   0  0  0  0  0  0  0  0  0  0  0  0
  -11.0851    3.2000    0.0000 C   0  0  0  0  0  0  0  0  0  0  0  0
  -12.4708    2.4000    0.0000 C   0  0  0  0  0  0  0  0  0  0  0  0
  -12.4708    0.8000    0.0000 C   0  0  0  0  0  0  0  0  0  0  0  0
  -11.0851    0.0000    0.0000 C   0  0  0  0  0  0  0  0  0  0  0  0
   -9.6995    0.8000    0.0000 C   0  0  0  0  0  0  0  0  0  0  0  0
  -13.8564    0.0000    0.0000 C   0  0  0  0  0  0  0  0  0  0  0  0
  -15.2420    0.8000    0.0000 O   0  0  0  0  0  0  0  0  0  0  0  0
  -16.6277    0.0000    0.0000 C   0  0  0  0  0  0  0  0  0  0  0  0
  -18.0133    0.8000    0.0000 C   0  0  0  0  0  0  0  0  0  0  0  0
  -13.8564   -1.6000    0.0000 O   0  0  0  0  0  0  0  0  0  0  0  0
   -2.7713    3.2000    0.0000 F   0  0  0  0  0  0  0  0  0  0  0  0
   -1.3856   -2.4000    0.0000 O   0  0  0  0  0  0  0  0  0  0  0  0
   -1.3856   -4.0000    0.0000 C   0  0  0  0  0  0  0  0  0  0  0  0
  1  2  2  0  0  0  0
  1  6  1  0  0  0  0
  1  8  1  0  0  0  0
  2  3  1  0  0  0  0
  2 40  1  0  0  0  0
  3  4  2  0  0  0  0
  4  5  1  0  0  0  0
  4  7  1  0  0  0  0
  5  6  2  0  0  0  0
  7  9  2  0  0  0  0
  7 29  1  0  0  0  0
  8 10  2  0  0  0  0
  8 11  1  0  0  0  0
 11 12  1  0  0  0  0
 12 13  1  0  0  0  0
 12 17  2  0  0  0  0
 13 14  2  0  0  0  0
 13 41  1  0  0  0  0
 14 15  1  0  0  0  0
 15 16  2  0  0  0  0
 15 28  1  0  0  0  0
 16 17  1  0  0  0  0
 17 18  1  0  0  0  0
 18 19  2  0  0  0  0
 18 20  1  0  0  0  0
 20 21  1  0  0  0  0
 21 22  1  0  0  0  0
 21 26  2  0  0  0  0
 22 23  2  0  0  0  0
 23 24  1  0  0  0  0
 24 25  2  0  0  0  0
 24 27  1  0  0  0  0
 25 26  1  0  0  0  0
 29 30  1  0  0  0  0
 29 34  1  0  0  0  0
 30 31  1  0  0  0  0
 31 32  1  0  0  0  0
 32 33  1  0  0  0  0
 32 35  1  0  0  0  0
 33 34  1  0  0  0  0
 35 36  1  0  0  0  0
 35 39  2  0  0  0  0
 36 37  1  0  0  0  0
 37 38  1  0  0  0  0
 41 42  1  0  0  0  0
M  END
> <Acceptable>
false

> <IC50>
<<1

$$$$

Generated by Molecular Materials Informatics

 37 40  0  0  0  0  0  0  0  0999 V2000
    5.5426    0.0000    0.0000 C   0  0  0  0  0  0  0  0  0  0  0  0
    5.5426    1.6000    0.0000 C   0  0  0  0  0  0  0  0  0  0  0  0
    6.9282    2.4000    0.0000 C   0  0  0  0  0  0  0  0  0  0  0  0
    8.3138    1.6000    0.0000 C   0  0  0  0  0  0  0  0  0  0  0  0
    8.3138    0.0000    0.0000 C   0  0  0  0  0  0  0  0  0  0  0  0
    6.9282   -0.8000    0.0000 C   0  0  0  0  0  0  0  0  0  0  0  0
    9.6995    2.4000    0.0000 C   0  0  0  0  0  0  0  0  0  0  0  0
    4.1569   -0.8000    0.0000 C   0  0  0  0  0  0  0  0  0  0  0  0
    9.6995    4.0000    0.0000 N   0  0  0  0  0  0  0  0  0  0  0  0
    4.1569   -2.4000    0.0000 O   0  0  0  0  0  0  0  0  0  0  0  0
    2.7713    0.0000    0.0000 N   0  0  0  0  0  0  0  0  0  0  0  0
    1.3856   -0.8000    0.0000 C   0  0  0  0  0  0  0  0  0  0  0  0
    1.3856   -2.4000    0.0000 C   0  0  0  0  0  0  0  0  0  0  0  0
    0.0000   -3.2000    0.0000 C   0  0  0  0  0  0  0  0  0  0  0  0
   -1.3856   -2.4000    0.0000 C   0  0  0  0  0  0  0  0  0  0  0  0
   -1.3856   -0.8000    0.0000 C   0  0  0  0  0  0  0  0  0  0  0  0
    0.0000    0.0000    0.0000 C   0  0  0  0  0  0  0  0  0  0  0  0
    0.0000    1.6000    0.0000 C   0  0  0  0  0  0  0  0  0  0  0  0
    1.3856    2.4000    0.0000 O   0  0  0  0  0  0  0  0  0  0  0  0
   -1.3856    2.4000    0.0000 N   0  0  0  0  0  0  0  0  0  0  0  0
   -1.3856    4.0000    0.0000 C   0  0  0  0  0  0  0  0  0  0  0  0
   -2.7713    4.8000    0.0000 C   0  0  0  0  0  0  0  0  0  0  0  0
   -2.7713    6.4000    0.0000 C   0  0  0  0  0  0  0  0  0  0  0  0
   -1.3856    7.2000    0.0000 C   0  0  0  0  0  0  0  0  0  0  0  0
    0.0000    6.4000    0.0000 C   0  0  0  0  0  0  0  0  0  0  0  0
    0.0000    4.8000    0.0000 N   0  0  0  0  0  0  0  0  0  0  0  0
   -1.3856    8.8000    0.0000 Cl  0  0  0  0  0  0  0  0  0  0  0  0
   -2.7713   -3.2000    0.0000 Cl  0  0  0  0  0  0  0  0  0  0  0  0
   11.0851    1.6000    0.0000 N   0  0  0  0  0  0  0  0  0  0  0  0
   12.4708    2.4000    0.0000 C   0  0  0  0  0  0  0  0  0  0  0  0
   13.8564    1.6000    0.0000 C   0  0  0  0  0  0  0  0  0  0  0  0
   13.8564    0.0000    0.0000 C   0  0  0  0  0  0  0  0  0  0  0  0
   12.4708   -0.8000    0.0000 C   0  0  0  0  0  0  0  0  0  0  0  0
   11.0851    0.0000    0.0000 C   0  0  0  0  0  0  0  0  0  0  0  0
   15.2421   -0.8000    0.0000 N   0  0  0  0  0  0  0  0  0  0  0  0
   15.2421   -2.4000    0.0000 C   0  0  0  0  0  0  0  0  0  0  0  0
   16.6277    0.0000    0.0000 C   0  0  0  0  0  0  0  0  0  0  0  0
  1  2  2  0  0  0  0
  1  6  1  0  0  0  0
  1  8  1  0  0  0  0
  2  3  1  0  0  0  0
  3  4  2  0  0  0  0
  4  5  1  0  0  0  0
  4  7  1  0  0  0  0
  5  6  2  0  0  0  0
  7  9  2  0  0  0  0
  7 29  1  0  0  0  0
  8 10  2  0  0  0  0
  8 11  1  0  0  0  0
 11 12  1  0  0  0  0
 12 13  1  0  0  0  0
 12 17  2  0  0  0  0
 13 14  2  0  0  0  0
 14 15  1  0  0  0  0
 15 16  2  0  0  0  0
 15 28  1  0  0  0  0
 16 17  1  0  0  0  0
 17 18  1  0  0  0  0
 18 19  2  0  0  0  0
 18 20  1  0  0  0  0
 20 21  1  0  0  0  0
 21 22  1  0  0  0  0
 21 26  2  0  0  0  0
 22 23  2  0  0  0  0
 23 24  1  0  0  0  0
 24 25  2  0  0  0  0
 24 27  1  0  0  0  0
 25 26  1  0  0  0  0
 29 30  1  0  0  0  0
 29 34  1  0  0  0  0
 30 31  1  0  0  0  0
 31 32  1  0  0  0  0
 32 33  1  0  0  0  0
 32 35  1  0  0  0  0
 33 34  1  0  0  0  0
 35 36  1  0  0  0  0
 35 37  1  0  0  0  0
M  END
> <Acceptable>
false

> <IC50>
<<1

$$$$

Generated by Molecular Materials Informatics

 41 44  0  0  0  0  0  0  0  0999 V2000
   -2.7713    4.8000    0.0000 C   0  0  0  0  0  0  0  0  0  0  0  0
   -4.1569    4.0000    0.0000 C   0  0  0  0  0  0  0  0  0  0  0  0
   -5.5426    4.8000    0.0000 C   0  0  0  0  0  0  0  0  0  0  0  0
   -5.5426    6.4000    0.0000 C   0  0  0  0  0  0  0  0  0  0  0  0
   -4.1569    7.2000    0.0000 C   0  0  0  0  0  0  0  0  0  0  0  0
   -2.7713    6.4000    0.0000 C   0  0  0  0  0  0  0  0  0  0  0  0
   -6.9282    7.2000    0.0000 C   0  0  0  0  0  0  0  0  0  0  0  0
   -1.3856    4.0000    0.0000 C   0  0  0  0  0  0  0  0  0  0  0  0
   -8.3138    6.4000    0.0000 N   0  0  0  0  0  0  0  0  0  0  0  0
   -6.9282    8.8000    0.0000 N   0  0  0  0  0  0  0  0  0  0  0  0
   -5.5426    9.6000    0.0000 C   0  0  0  0  0  0  0  0  0  0  0  0
   -8.3138    9.6000    0.0000 C   0  0  0  0  0  0  0  0  0  0  0  0
    0.0000    4.8000    0.0000 O   0  0  0  0  0  0  0  0  0  0  0  0
   -1.3856    2.4000    0.0000 N   0  0  0  0  0  0  0  0  0  0  0  0
    0.0000    1.6000    0.0000 C   0  0  0  0  0  0  0  0  0  0  0  0
    1.3856    2.4000    0.0000 C   0  0  0  0  0  0  0  0  0  0  0  0
    2.7713    1.6000    0.0000 C   0  0  0  0  0  0  0  0  0  0  0  0
    2.7713    0.0000    0.0000 C   0  0  0  0  0  0  0  0  0  0  0  0
    1.3856   -0.8000    0.0000 C   0  0  0  0  0  0  0  0  0  0  0  0
    0.0000    0.0000    0.0000 C   0  0  0  0  0  0  0  0  0  0  0  0
    4.1569   -0.8000    0.0000 S   0  0  0  0  0  0  0  0  0  0  0  0
   -1.3856   -0.8000    0.0000 C   0  0  0  0  0  0  0  0  0  0  0  0
   -2.7713    0.0000    0.0000 O   0  0  0  0  0  0  0  0  0  0  0  0
   -1.3856   -2.4000    0.0000 N   0  0  0  0  0  0  0  0  0  0  0  0
   -2.7713   -3.2000    0.0000 C   0  0  0  0  0  0  0  0  0  0  0  0
   -2.7713   -4.8000    0.0000 C   0  0  0  0  0  0  0  0  0  0  0  0
   -4.1569   -5.6000    0.0000 C   0  0  0  0  0  0  0  0  0  0  0  0
   -5.5426   -4.8000    0.0000 C   0  0  0  0  0  0  0  0  0  0  0  0
   -5.5426   -3.2000    0.0000 C   0  0  0  0  0  0  0  0  0  0  0  0
   -4.1569   -2.4000    0.0000 N   0  0  0  0  0  0  0  0  0  0  0  0
   -6.9282   -5.6000    0.0000 Cl  0  0  0  0  0  0  0  0  0  0  0  0
    5.5426    0.0000    0.0000 C   0  0  0  0  0  0  0  0  0  0  0  0
    5.5426    1.6000    0.0000 C   0  0  0  0  0  0  0  0  0  0  0  0
    6.9282    2.4000    0.0000 C   0  0  0  0  0  0  0  0  0  0  0  0
    8.3138    1.6000    0.0000 C   0  0  0  0  0  0  0  0  0  0  0  0
    8.3138    0.0000    0.0000 C   0  0  0  0  0  0  0  0  0  0  0  0
    6.9282   -0.8000    0.0000 C   0  0  0  0  0  0  0  0  0  0  0  0
    9.6995    2.4000    0.0000 C   0  0  0  0  0  0  0  0  0  0  0  0
   11.0851    1.6000    0.0000 O   0  0  0  0  0  0  0  0  0  0  0  0
   12.4708    2.4000    0.0000 C   0  0  0  0  0  0  0  0  0  0  0  0
    9.6995    4.0000    0.0000 O   0  0  0  0  0  0  0  0  0  0  0  0
  1  2  2  0  0  0  0
  1  6  1  0  0  0  0
  1  8  1  0  0  0  0
  2  3  1  0  0  0  0
  3  4  2  0  0  0  0
  4  5  1  0  0  0  0
  4  7  1  0  0  0  0
  5  6  2  0  0  0  0
  7  9  2  0  0  0  0
  7 10  1  0  0  0  0
  8 13  2  0  0  0  0
  8 14  1  0  0  0  0
 10 11  1  0  0  0  0
 10 12  1  0  0  0  0
 14 15  1  0  0  0  0
 15 16  1  0  0  0  0
 15 20  2  0  0  0  0
 16 17  2  0  0  0  0
 17 18  1  0  0  0  0
 18 19  2  0  0  0  0
 18 21  1  0  0  0  0
 19 20  1  0  0  0  0
 20 22  1  0  0  0  0
 21 32  1  0  0  0  0
 22 23  2  0  0  0  0
 22 24  1  0  0  0  0
 24 25  1  0  0  0  0
 25 26  1  0  0  0  0
 25 30  2  0  0  0  0
 26 27  2  0  0  0  0
 27 28  1  0  0  0  0
 28 29  2  0  0  0  0
 28 31  1  0  0  0  0
 29 30  1  0  0  0  0
 32 33  1  0  0  0  0
 32 37  2  0  0  0  0
 33 34  2  0  0  0  0
 34 35  1  0  0  0  0
 35 36  2  0  0  0  0
 35 38  1  0  0  0  0
 36 37  1  0  0  0  0
 38 39  1  0  0  0  0
 38 41  2  0  0  0  0
 39 40  1  0  0  0  0
M  END
> <Acceptable>
false

> <IC50>
<<1

$$$$

Generated by Molecular Materials Informatics

 35 40  0  0  0  0  0  0  0  0999 V2000
   -4.1730   -0.8765    0.0000 C   0  0  0  0  0  0  0  0  0  0  0  0
   -2.5397   -1.9261    0.0000 C   0  0  0  0  0  0  0  0  0  0  0  0
   -4.3873    0.1971    0.0000 C   0  0  0  0  0  0  0  0  0  0  0  0
   -2.8256   -0.8439    0.0000 C   0  0  0  0  0  0  0  0  0  0  0  0
   -5.6694   -0.3102    0.0000 N   0  0  0  0  0  0  0  0  0  0  0  0
   -1.4322   -0.7133    0.0000 C   0  0  0  0  0  0  0  0  0  0  0  0
   -3.2116    0.7467    0.0000 C   0  0  0  0  0  0  0  0  0  0  0  0
   -3.4831    1.7603    0.0000 C   0  0  0  0  0  0  0  0  0  0  0  0
   -7.2694   -0.3222    0.0000 C   0  0  0  0  0  0  0  0  0  0  0  0
   -8.0590   -1.7138    0.0000 C   0  0  0  0  0  0  0  0  0  0  0  0
   -9.6589   -1.7257    0.0000 C   0  0  0  0  0  0  0  0  0  0  0  0
  -10.4693   -0.3461    0.0000 N   0  0  0  0  0  0  0  0  0  0  0  0
  -12.0692   -0.3581    0.0000 C   0  0  0  0  0  0  0  0  0  0  0  0
  -12.8796    1.0215    0.0000 C   0  0  0  0  0  0  0  0  0  0  0  0
  -12.4771    2.5701    0.0000 C   0  0  0  0  0  0  0  0  0  0  0  0
  -14.0256    2.9726    0.0000 C   0  0  0  0  0  0  0  0  0  0  0  0
  -14.4281    1.4241    0.0000 C   0  0  0  0  0  0  0  0  0  0  0  0
  -10.4485   -3.1173    0.0000 C   0  0  0  0  0  0  0  0  0  0  0  0
  -12.0485   -3.1293    0.0000 C   0  0  0  0  0  0  0  0  0  0  0  0
  -12.8381   -4.5209    0.0000 C   0  0  0  0  0  0  0  0  0  0  0  0
  -12.0278   -5.9005    0.0000 C   0  0  0  0  0  0  0  0  0  0  0  0
  -10.4278   -5.8885    0.0000 C   0  0  0  0  0  0  0  0  0  0  0  0
   -9.6382   -4.4969    0.0000 C   0  0  0  0  0  0  0  0  0  0  0  0
  -12.8589   -1.7497    0.0000 O   0  0  0  0  0  0  0  0  0  0  0  0
    0.0000    0.0000    0.0000 N   0  0  0  0  0  0  0  0  0  0  0  0
    1.4189   -0.7394    0.0000 C   0  0  0  0  0  0  0  0  0  0  0  0
    2.5606    0.3816    0.0000 N   0  0  0  0  0  0  0  0  0  0  0  0
    1.8473    1.8138    0.0000 C   0  0  0  0  0  0  0  0  0  0  0  0
    0.2648    1.5779    0.0000 C   0  0  0  0  0  0  0  0  0  0  0  0
   -0.7307    2.8305    0.0000 C   0  0  0  0  0  0  0  0  0  0  0  0
   -0.1437    4.3190    0.0000 C   0  0  0  0  0  0  0  0  0  0  0  0
    1.4388    4.5548    0.0000 C   0  0  0  0  0  0  0  0  0  0  0  0
    2.4343    3.3022    0.0000 C   0  0  0  0  0  0  0  0  0  0  0  0
    1.6547   -2.3219    0.0000 C   0  0  0  0  0  0  0  0  0  0  0  0
   -1.9938    1.1884    0.0000 O   0  0  0  0  0  0  0  0  0  0  0  0
  1  2  1  0  0  0  0
  1  5  1  0  0  0  0
  1  7  1  1  0  0  0
  2  6  1  0  0  0  0
  3  4  1  6  0  0  0
  3  5  1  0  0  0  0
  3  8  1  0  0  0  0
  4  6  1  0  0  0  0
  5  9  1  6  0  0  0
  6 25  1  1  0  0  0
  7 35  1  0  0  0  0
  8 35  1  0  0  0  0
  9 10  1  0  0  0  0
 10 11  1  0  0  0  0
 11 12  1  1  0  0  0
 11 18  1  0  0  0  0
 12 13  1  0  0  0  0
 13 14  1  0  0  0  0
 13 24  2  0  0  0  0
 14 15  1  0  0  0  0
 14 17  1  0  0  0  0
 15 16  1  0  0  0  0
 16 17  1  0  0  0  0
 18 19  1  0  0  0  0
 18 23  2  0  0  0  0
 19 20  2  0  0  0  0
 20 21  1  0  0  0  0
 21 22  2  0  0  0  0
 22 23  1  0  0  0  0
 25 26  1  0  0  0  0
 25 29  1  0  0  0  0
 26 27  2  0  0  0  0
 26 34  1  0  0  0  0
 27 28  1  0  0  0  0
 28 29  1  0  0  0  0
 28 33  2  0  0  0  0
 29 30  2  0  0  0  0
 30 31  1  0  0  0  0
 31 32  2  0  0  0  0
 32 33  1  0  0  0  0
M  END
> <Acceptable>
false

> <IC50>
<<1

$$$$

Generated by Molecular Materials Informatics

 41 44  0  0  0  0  0  0  0  0999 V2000
   -2.7713    4.8000    0.0000 C   0  0  0  0  0  0  0  0  0  0  0  0
   -4.1569    4.0000    0.0000 C   0  0  0  0  0  0  0  0  0  0  0  0
   -5.5426    4.8000    0.0000 C   0  0  0  0  0  0  0  0  0  0  0  0
   -5.5426    6.4000    0.0000 C   0  0  0  0  0  0  0  0  0  0  0  0
   -4.1569    7.2000    0.0000 C   0  0  0  0  0  0  0  0  0  0  0  0
   -2.7713    6.4000    0.0000 C   0  0  0  0  0  0  0  0  0  0  0  0
   -6.9282    7.2000    0.0000 C   0  0  0  0  0  0  0  0  0  0  0  0
   -1.3856    4.0000    0.0000 C   0  0  0  0  0  0  0  0  0  0  0  0
   -8.3138    6.4000    0.0000 N   0  0  0  0  0  0  0  0  0  0  0  0
   -6.9282    8.8000    0.0000 N   0  0  0  0  0  0  0  0  0  0  0  0
   -5.5426    9.6000    0.0000 C   0  0  0  0  0  0  0  0  0  0  0  0
   -8.3138    9.6000    0.0000 C   0  0  0  0  0  0  0  0  0  0  0  0
    0.0000    4.8000    0.0000 O   0  0  0  0  0  0  0  0  0  0  0  0
   -1.3856    2.4000    0.0000 N   0  0  0  0  0  0  0  0  0  0  0  0
    0.0000    1.6000    0.0000 C   0  0  0  0  0  0  0  0  0  0  0  0
    1.3856    2.4000    0.0000 C   0  0  0  0  0  0  0  0  0  0  0  0
    2.7713    1.6000    0.0000 C   0  0  0  0  0  0  0  0  0  0  0  0
    2.7713    0.0000    0.0000 C   0  0  0  0  0  0  0  0  0  0  0  0
    1.3856   -0.8000    0.0000 C   0  0  0  0  0  0  0  0  0  0  0  0
    0.0000    0.0000    0.0000 C   0  0  0  0  0  0  0  0  0  0  0  0
    4.1569   -0.8000    0.0000 O   0  0  0  0  0  0  0  0  0  0  0  0
   -1.3856   -0.8000    0.0000 C   0  0  0  0  0  0  0  0  0  0  0  0
   -2.7713    0.0000    0.0000 O   0  0  0  0  0  0  0  0  0  0  0  0
   -1.3856   -2.4000    0.0000 N   0  0  0  0  0  0  0  0  0  0  0  0
   -2.7713   -3.2000    0.0000 C   0  0  0  0  0  0  0  0  0  0  0  0
   -2.7713   -4.8000    0.0000 C   0  0  0  0  0  0  0  0  0  0  0  0
   -4.1569   -5.6000    0.0000 C   0  0  0  0  0  0  0  0  0  0  0  0
   -5.5426   -4.8000    0.0000 C   0  0  0  0  0  0  0  0  0  0  0  0
   -5.5426   -3.2000    0.0000 C   0  0  0  0  0  0  0  0  0  0  0  0
   -4.1569   -2.4000    0.0000 N   0  0  0  0  0  0  0  0  0  0  0  0
   -6.9282   -5.6000    0.0000 Cl  0  0  0  0  0  0  0  0  0  0  0  0
    5.5426    0.0000    0.0000 C   0  0  0  0  0  0  0  0  0  0  0  0
    5.5426    1.6000    0.0000 C   0  0  0  0  0  0  0  0  0  0  0  0
    6.9282    2.4000    0.0000 C   0  0  0  0  0  0  0  0  0  0  0  0
    8.3138    1.6000    0.0000 C   0  0  0  0  0  0  0  0  0  0  0  0
    8.3138    0.0000    0.0000 C   0  0  0  0  0  0  0  0  0  0  0  0
    6.9282   -0.8000    0.0000 C   0  0  0  0  0  0  0  0  0  0  0  0
    9.6995    2.4000    0.0000 C   0  0  0  0  0  0  0  0  0  0  0  0
   11.0851    1.6000    0.0000 O   0  0  0  0  0  0  0  0  0  0  0  0
   12.4708    2.4000    0.0000 C   0  0  0  0  0  0  0  0  0  0  0  0
    9.6995    4.0000    0.0000 O   0  0  0  0  0  0  0  0  0  0  0  0
  1  2  2  0  0  0  0
  1  6  1  0  0  0  0
  1  8  1  0  0  0  0
  2  3  1  0  0  0  0
  3  4  2  0  0  0  0
  4  5  1  0  0  0  0
  4  7  1  0  0  0  0
  5  6  2  0  0  0  0
  7  9  2  0  0  0  0
  7 10  1  0  0  0  0
  8 13  2  0  0  0  0
  8 14  1  0  0  0  0
 10 11  1  0  0  0  0
 10 12  1  0  0  0  0
 14 15  1  0  0  0  0
 15 16  1  0  0  0  0
 15 20  2  0  0  0  0
 16 17  2  0  0  0  0
 17 18  1  0  0  0  0
 18 19  2  0  0  0  0
 18 21  1  0  0  0  0
 19 20  1  0  0  0  0
 20 22  1  0  0  0  0
 21 32  1  0  0  0  0
 22 23  2  0  0  0  0
 22 24  1  0  0  0  0
 24 25  1  0  0  0  0
 25 26  1  0  0  0  0
 25 30  2  0  0  0  0
 26 27  2  0  0  0  0
 27 28  1  0  0  0  0
 28 29  2  0  0  0  0
 28 31  1  0  0  0  0
 29 30  1  0  0  0  0
 32 33  1  0  0  0  0
 32 37  2  0  0  0  0
 33 34  2  0  0  0  0
 34 35  1  0  0  0  0
 35 36  2  0  0  0  0
 35 38  1  0  0  0  0
 36 37  1  0  0  0  0
 38 39  1  0  0  0  0
 38 41  2  0  0  0  0
 39 40  1  0  0  0  0
M  END
> <Acceptable>
false

> <IC50>
<<1

$$$$

Generated by Molecular Materials Informatics

 37 40  0  0  0  0  0  0  0  0999 V2000
   -1.6000    0.0000    0.0000 C   0  0  0  0  0  0  0  0  0  0  0  0
    0.0000    0.0000    0.0000 C   0  0  0  0  0  0  0  0  0  0  0  0
    0.8000   -1.3856    0.0000 C   0  0  0  0  0  0  0  0  0  0  0  0
    0.0000   -2.7713    0.0000 C   0  0  0  0  0  0  0  0  0  0  0  0
   -1.6000   -2.7713    0.0000 C   0  0  0  0  0  0  0  0  0  0  0  0
   -2.4000   -1.3856    0.0000 C   0  0  0  0  0  0  0  0  0  0  0  0
    0.8000   -4.1569    0.0000 C   0  0  0  0  0  0  0  0  0  0  0  0
   -2.4000    1.3856    0.0000 C   0  0  0  0  0  0  0  0  0  0  0  0
    2.4000   -4.1569    0.0000 N   0  0  0  0  0  0  0  0  0  0  0  0
   -1.6000    2.7713    0.0000 O   0  0  0  0  0  0  0  0  0  0  0  0
   -4.0000    1.3856    0.0000 N   0  0  0  0  0  0  0  0  0  0  0  0
   -4.8000    2.7713    0.0000 C   0  0  0  0  0  0  0  0  0  0  0  0
   -4.0000    4.1569    0.0000 C   0  0  0  0  0  0  0  0  0  0  0  0
   -4.8000    5.5426    0.0000 C   0  0  0  0  0  0  0  0  0  0  0  0
   -6.4000    5.5426    0.0000 C   0  0  0  0  0  0  0  0  0  0  0  0
   -7.2000    4.1569    0.0000 C   0  0  0  0  0  0  0  0  0  0  0  0
   -6.4000    2.7713    0.0000 C   0  0  0  0  0  0  0  0  0  0  0  0
   -7.2000    1.3856    0.0000 C   0  0  0  0  0  0  0  0  0  0  0  0
   -6.4000    0.0000    0.0000 O   0  0  0  0  0  0  0  0  0  0  0  0
   -8.8000    1.3856    0.0000 N   0  0  0  0  0  0  0  0  0  0  0  0
   -9.6000    0.0000    0.0000 C   0  0  0  0  0  0  0  0  0  0  0  0
   -8.8000   -1.3856    0.0000 C   0  0  0  0  0  0  0  0  0  0  0  0
   -9.6000   -2.7713    0.0000 C   0  0  0  0  0  0  0  0  0  0  0  0
  -11.2000   -2.7713    0.0000 C   0  0  0  0  0  0  0  0  0  0  0  0
  -12.0000   -1.3856    0.0000 C   0  0  0  0  0  0  0  0  0  0  0  0
  -11.2000    0.0000    0.0000 N   0  0  0  0  0  0  0  0  0  0  0  0
  -12.0000   -4.1569    0.0000 Cl  0  0  0  0  0  0  0  0  0  0  0  0
   -7.2000    6.9282    0.0000 Cl  0  0  0  0  0  0  0  0  0  0  0  0
    0.0000   -5.5426    0.0000 N   0  0  0  0  0  0  0  0  0  0  0  0
   -1.6000   -5.5426    0.0000 C   0  0  0  0  0  0  0  0  0  0  0  0
    0.8000   -6.9282    0.0000 C   0  0  0  0  0  0  0  0  0  0  0  0
    0.8000    1.3856    0.0000 N   0  0  0  0  0  0  0  0  0  0  0  0
    0.0000    2.7713    0.0000 C   0  0  0  0  0  0  0  0  0  0  0  0
    0.8000    4.1569    0.0000 C   0  0  0  0  0  0  0  0  0  0  0  0
    2.4000    4.1569    0.0000 C   0  0  0  0  0  0  0  0  0  0  0  0
    3.2000    2.7713    0.0000 C   0  0  0  0  0  0  0  0  0  0  0  0
    2.4000    1.3856    0.0000 C   0  0  0  0  0  0  0  0  0  0  0  0
  1  2  2  0  0  0  0
  1  6  1  0  0  0  0
  1  8  1  0  0  0  0
  2  3  1  0  0  0  0
  2 32  1  0  0  0  0
  3  4  2  0  0  0  0
  4  5  1  0  0  0  0
  4  7  1  0  0  0  0
  5  6  2  0  0  0  0
  7  9  2  0  0  0  0
  7 29  1  0  0  0  0
  8 10  2  0  0  0  0
  8 11  1  0  0  0  0
 11 12  1  0  0  0  0
 12 13  1  0  0  0  0
 12 17  2  0  0  0  0
 13 14  2  0  0  0  0
 14 15  1  0  0  0  0
 15 16  2  0  0  0  0
 15 28  1  0  0  0  0
 16 17  1  0  0  0  0
 17 18  1  0  0  0  0
 18 19  2  0  0  0  0
 18 20  1  0  0  0  0
 20 21  1  0  0  0  0
 21 22  1  0  0  0  0
 21 26  2  0  0  0  0
 22 23  2  0  0  0  0
 23 24  1  0  0  0  0
 24 25  2  0  0  0  0
 24 27  1  0  0  0  0
 25 26  1  0  0  0  0
 29 30  1  0  0  0  0
 29 31  1  0  0  0  0
 32 33  1  0  0  0  0
 32 37  1  0  0  0  0
 33 34  1  0  0  0  0
 34 35  1  0  0  0  0
 35 36  1  0  0  0  0
 36 37  1  0  0  0  0
M  END
> <Acceptable>
false

> <IC50>
<<1

$$$$

Generated by Molecular Materials Informatics

 38 41  0  0  0  0  0  0  0  0999 V2000
    1.3856    0.8000    0.0000 C   0  0  0  0  0  0  0  0  0  0  0  0
    0.0000    0.0000    0.0000 C   0  0  0  0  0  0  0  0  0  0  0  0
   -1.3856    0.8000    0.0000 C   0  0  0  0  0  0  0  0  0  0  0  0
   -1.3856    2.4000    0.0000 C   0  0  0  0  0  0  0  0  0  0  0  0
    0.0000    3.2000    0.0000 C   0  0  0  0  0  0  0  0  0  0  0  0
    1.3856    2.4000    0.0000 C   0  0  0  0  0  0  0  0  0  0  0  0
   -2.7713    3.2000    0.0000 C   0  0  0  0  0  0  0  0  0  0  0  0
    2.7713    0.0000    0.0000 C   0  0  0  0  0  0  0  0  0  0  0  0
   -4.1569    2.4000    0.0000 N   0  0  0  0  0  0  0  0  0  0  0  0
    2.7713   -1.6000    0.0000 O   0  0  0  0  0  0  0  0  0  0  0  0
    4.1569    0.8000    0.0000 N   0  0  0  0  0  0  0  0  0  0  0  0
    5.5426    0.0000    0.0000 C   0  0  0  0  0  0  0  0  0  0  0  0
    5.5426   -1.6000    0.0000 C   0  0  0  0  0  0  0  0  0  0  0  0
    6.9282   -2.4000    0.0000 C   0  0  0  0  0  0  0  0  0  0  0  0
    8.3138   -1.6000    0.0000 C   0  0  0  0  0  0  0  0  0  0  0  0
    8.3138    0.0000    0.0000 C   0  0  0  0  0  0  0  0  0  0  0  0
    6.9282    0.8000    0.0000 C   0  0  0  0  0  0  0  0  0  0  0  0
    6.9282    2.4000    0.0000 C   0  0  0  0  0  0  0  0  0  0  0  0
    5.5426    3.2000    0.0000 O   0  0  0  0  0  0  0  0  0  0  0  0
    8.3138    3.2000    0.0000 N   0  0  0  0  0  0  0  0  0  0  0  0
    8.3138    4.8000    0.0000 C   0  0  0  0  0  0  0  0  0  0  0  0
    6.9282    5.6000    0.0000 C   0  0  0  0  0  0  0  0  0  0  0  0
    6.9282    7.2000    0.0000 C   0  0  0  0  0  0  0  0  0  0  0  0
    8.3138    8.0000    0.0000 C   0  0  0  0  0  0  0  0  0  0  0  0
    9.6995    7.2000    0.0000 C   0  0  0  0  0  0  0  0  0  0  0  0
    9.6995    5.6000    0.0000 N   0  0  0  0  0  0  0  0  0  0  0  0
    8.3138    9.6000    0.0000 Cl  0  0  0  0  0  0  0  0  0  0  0  0
    9.6995   -2.4000    0.0000 O   0  0  0  0  0  0  0  0  0  0  0  0
   -2.7713    4.8000    0.0000 N   0  0  0  0  0  0  0  0  0  0  0  0
   -1.3856    5.6000    0.0000 C   0  0  0  0  0  0  0  0  0  0  0  0
   -4.1569    5.6000    0.0000 C   0  0  0  0  0  0  0  0  0  0  0  0
    0.0000   -1.6000    0.0000 N   0  0  0  0  0  0  0  0  0  0  0  0
    1.3856   -2.4000    0.0000 C   0  0  0  0  0  0  0  0  0  0  0  0
    1.3856   -4.0000    0.0000 C   0  0  0  0  0  0  0  0  0  0  0  0
    0.0000   -4.8000    0.0000 C   0  0  0  0  0  0  0  0  0  0  0  0
   -1.3856   -4.0000    0.0000 C   0  0  0  0  0  0  0  0  0  0  0  0
   -1.3856   -2.4000    0.0000 C   0  0  0  0  0  0  0  0  0  0  0  0
    9.6995   -4.0000    0.0000 C   0  0  0  0  0  0  0  0  0  0  0  0
  1  2  2  0  0  0  0
  1  6  1  0  0  0  0
  1  8  1  0  0  0  0
  2  3  1  0  0  0  0
  2 32  1  0  0  0  0
  3  4  2  0  0  0  0
  4  5  1  0  0  0  0
  4  7  1  0  0  0  0
  5  6  2  0  0  0  0
  7  9  2  0  0  0  0
  7 29  1  0  0  0  0
  8 10  2  0  0  0  0
  8 11  1  0  0  0  0
 11 12  1  0  0  0  0
 12 13  1  0  0  0  0
 12 17  2  0  0  0  0
 13 14  2  0  0  0  0
 14 15  1  0  0  0  0
 15 16  2  0  0  0  0
 15 28  1  0  0  0  0
 16 17  1  0  0  0  0
 17 18  1  0  0  0  0
 18 19  2  0  0  0  0
 18 20  1  0  0  0  0
 20 21  1  0  0  0  0
 21 22  1  0  0  0  0
 21 26  2  0  0  0  0
 22 23  2  0  0  0  0
 23 24  1  0  0  0  0
 24 25  2  0  0  0  0
 24 27  1  0  0  0  0
 25 26  1  0  0  0  0
 28 38  1  0  0  0  0
 29 30  1  0  0  0  0
 29 31  1  0  0  0  0
 32 33  1  0  0  0  0
 32 37  1  0  0  0  0
 33 34  1  0  0  0  0
 34 35  1  0  0  0  0
 35 36  1  0  0  0  0
 36 37  1  0  0  0  0
M  END
> <Acceptable>
false

> <IC50>
<<1

$$$$

Generated by Molecular Materials Informatics

 43 46  0  0  0  0  0  0  0  0999 V2000
   -0.8000    1.3856    0.0000 C   0  0  0  0  0  0  0  0  0  0  0  0
    0.0000    0.0000    0.0000 C   0  0  0  0  0  0  0  0  0  0  0  0
   -0.8000   -1.3856    0.0000 C   0  0  0  0  0  0  0  0  0  0  0  0
   -2.4000   -1.3856    0.0000 C   0  0  0  0  0  0  0  0  0  0  0  0
   -3.2000    0.0000    0.0000 C   0  0  0  0  0  0  0  0  0  0  0  0
   -2.4000    1.3856    0.0000 C   0  0  0  0  0  0  0  0  0  0  0  0
   -3.2000   -2.7713    0.0000 C   0  0  0  0  0  0  0  0  0  0  0  0
    0.0000    2.7713    0.0000 C   0  0  0  0  0  0  0  0  0  0  0  0
   -2.4000   -4.1569    0.0000 N   0  0  0  0  0  0  0  0  0  0  0  0
    1.6000    2.7713    0.0000 O   0  0  0  0  0  0  0  0  0  0  0  0
   -0.8000    4.1569    0.0000 N   0  0  0  0  0  0  0  0  0  0  0  0
    0.0000    5.5426    0.0000 C   0  0  0  0  0  0  0  0  0  0  0  0
    1.6000    5.5426    0.0000 C   0  0  0  0  0  0  0  0  0  0  0  0
    2.4000    6.9282    0.0000 C   0  0  0  0  0  0  0  0  0  0  0  0
    1.6000    8.3138    0.0000 C   0  0  0  0  0  0  0  0  0  0  0  0
    0.0000    8.3138    0.0000 C   0  0  0  0  0  0  0  0  0  0  0  0
   -0.8000    6.9282    0.0000 C   0  0  0  0  0  0  0  0  0  0  0  0
   -2.4000    6.9282    0.0000 C   0  0  0  0  0  0  0  0  0  0  0  0
   -3.2000    5.5426    0.0000 O   0  0  0  0  0  0  0  0  0  0  0  0
   -3.2000    8.3138    0.0000 N   0  0  0  0  0  0  0  0  0  0  0  0
   -4.8000    8.3138    0.0000 C   0  0  0  0  0  0  0  0  0  0  0  0
   -5.6000    6.9282    0.0000 C   0  0  0  0  0  0  0  0  0  0  0  0
   -7.2000    6.9282    0.0000 C   0  0  0  0  0  0  0  0  0  0  0  0
   -8.0000    8.3138    0.0000 C   0  0  0  0  0  0  0  0  0  0  0  0
   -7.2000    9.6995    0.0000 C   0  0  0  0  0  0  0  0  0  0  0  0
   -5.6000    9.6995    0.0000 N   0  0  0  0  0  0  0  0  0  0  0  0
   -9.6000    8.3138    0.0000 Cl  0  0  0  0  0  0  0  0  0  0  0  0
    2.4000    9.6995    0.0000 O   0  0  0  0  0  0  0  0  0  0  0  0
   -4.8000   -2.7713    0.0000 N   0  0  0  0  0  0  0  0  0  0  0  0
   -5.6000   -1.3856    0.0000 C   0  0  0  0  0  0  0  0  0  0  0  0
   -5.6000   -4.1569    0.0000 C   0  0  0  0  0  0  0  0  0  0  0  0
    1.6000    0.0000    0.0000 N   0  0  0  0  0  0  0  0  0  0  0  0
    2.4000    1.3856    0.0000 C   0  0  0  0  0  0  0  0  0  0  0  0
    4.0000    1.3856    0.0000 C   0  0  0  0  0  0  0  0  0  0  0  0
    4.8000    0.0000    0.0000 C   0  0  0  0  0  0  0  0  0  0  0  0
    4.0000   -1.3856    0.0000 C   0  0  0  0  0  0  0  0  0  0  0  0
    2.4000   -1.3856    0.0000 C   0  0  0  0  0  0  0  0  0  0  0  0
    4.0000    9.6995    0.0000 C   0  0  0  0  0  0  0  0  0  0  0  0
    6.4000    0.0000    0.0000 C   0  0  0  0  0  0  0  0  0  0  0  0
    7.2000   -1.3856    0.0000 O   0  0  0  0  0  0  0  0  0  0  0  0
    8.8000   -1.3856    0.0000 C   0  0  0  0  0  0  0  0  0  0  0  0
    9.6000   -2.7713    0.0000 C   0  0  0  0  0  0  0  0  0  0  0  0
    7.2000    1.3856    0.0000 O   0  0  0  0  0  0  0  0  0  0  0  0
  1  2  2  0  0  0  0
  1  6  1  0  0  0  0
  1  8  1  0  0  0  0
  2  3  1  0  0  0  0
  2 32  1  0  0  0  0
  3  4  2  0  0  0  0
  4  5  1  0  0  0  0
  4  7  1  0  0  0  0
  5  6  2  0  0  0  0
  7  9  2  0  0  0  0
  7 29  1  0  0  0  0
  8 10  2  0  0  0  0
  8 11  1  0  0  0  0
 11 12  1  0  0  0  0
 12 13  1  0  0  0  0
 12 17  2  0  0  0  0
 13 14  2  0  0  0  0
 14 15  1  0  0  0  0
 15 16  2  0  0  0  0
 15 28  1  0  0  0  0
 16 17  1  0  0  0  0
 17 18  1  0  0  0  0
 18 19  2  0  0  0  0
 18 20  1  0  0  0  0
 20 21  1  0  0  0  0
 21 22  1  0  0  0  0
 21 26  2  0  0  0  0
 22 23  2  0  0  0  0
 23 24  1  0  0  0  0
 24 25  2  0  0  0  0
 24 27  1  0  0  0  0
 25 26  1  0  0  0  0
 28 38  1  0  0  0  0
 29 30  1  0  0  0  0
 29 31  1  0  0  0  0
 32 33  1  0  0  0  0
 32 37  1  0  0  0  0
 33 34  1  0  0  0  0
 34 35  1  0  0  0  0
 35 36  1  0  0  0  0
 35 39  1  0  0  0  0
 36 37  1  0  0  0  0
 39 40  1  0  0  0  0
 39 43  2  0  0  0  0
 40 41  1  0  0  0  0
 41 42  1  0  0  0  0
M  END
> <Acceptable>
false

> <IC50>
<<1

$$$$

Generated by Molecular Materials Informatics

 42 47  0  0  0  0  0  0  0  0999 V2000
   -6.4000    2.7713    0.0000 C   0  0  0  0  0  0  0  0  0  0  0  0
   -7.2000    1.3856    0.0000 C   0  0  0  0  0  0  0  0  0  0  0  0
   -8.8000    1.3856    0.0000 C   0  0  0  0  0  0  0  0  0  0  0  0
   -9.6000    2.7713    0.0000 C   0  0  0  0  0  0  0  0  0  0  0  0
   -8.8000    4.1569    0.0000 C   0  0  0  0  0  0  0  0  0  0  0  0
   -7.2000    4.1569    0.0000 C   0  0  0  0  0  0  0  0  0  0  0  0
   -9.6000    5.5426    0.0000 C   0  0  0  0  0  0  0  0  0  0  0  0
  -11.1912    5.7098    0.0000 N   0  0  0  0  0  0  0  0  0  0  0  0
  -11.5239    7.2748    0.0000 C   0  0  0  0  0  0  0  0  0  0  0  0
  -10.1383    8.0748    0.0000 C   0  0  0  0  0  0  0  0  0  0  0  0
   -8.9492    7.0042    0.0000 N   0  0  0  0  0  0  0  0  0  0  0  0
   -7.3842    7.3369    0.0000 C   0  0  0  0  0  0  0  0  0  0  0  0
   -6.4000    0.0000    0.0000 C   0  0  0  0  0  0  0  0  0  0  0  0
   -4.8000    0.0000    0.0000 N   0  0  0  0  0  0  0  0  0  0  0  0
   -7.2000   -1.3856    0.0000 O   0  0  0  0  0  0  0  0  0  0  0  0
   -4.0000    1.3856    0.0000 C   0  0  0  0  0  0  0  0  0  0  0  0
   -2.4000    1.3856    0.0000 C   0  0  0  0  0  0  0  0  0  0  0  0
   -1.6000    0.0000    0.0000 N   0  0  0  0  0  0  0  0  0  0  0  0
   -2.4000   -1.3856    0.0000 C   0  0  0  0  0  0  0  0  0  0  0  0
   -4.0000   -1.3856    0.0000 C   0  0  0  0  0  0  0  0  0  0  0  0
   -4.8000   -2.7713    0.0000 C   0  0  0  0  0  0  0  0  0  0  0  0
   -4.0000   -4.1569    0.0000 C   0  0  0  0  0  0  0  0  0  0  0  0
   -4.8000   -5.5426    0.0000 N   0  0  0  0  0  0  0  0  0  0  0  0
   -2.4000   -4.1569    0.0000 O   0  0  0  0  0  0  0  0  0  0  0  0
    0.0000    0.0000    0.0000 S   0  0  0  0  0  0  0  0  0  0  0  0
    1.6000    0.0000    0.0000 C   0  0  0  0  0  0  0  0  0  0  0  0
    2.5405    1.2944    0.0000 S   0  0  0  0  0  0  0  0  0  0  0  0
    4.0621    0.8000    0.0000 C   0  0  0  0  0  0  0  0  0  0  0  0
    4.0621   -0.8000    0.0000 C   0  0  0  0  0  0  0  0  0  0  0  0
    2.5405   -1.2944    0.0000 C   0  0  0  0  0  0  0  0  0  0  0  0
    5.4478    1.6000    0.0000 C   0  0  0  0  0  0  0  0  0  0  0  0
    6.8334    0.8000    0.0000 C   0  0  0  0  0  0  0  0  0  0  0  0
    6.8334   -0.8000    0.0000 C   0  0  0  0  0  0  0  0  0  0  0  0
    5.4478   -1.6000    0.0000 C   0  0  0  0  0  0  0  0  0  0  0  0
    8.2191    1.6000    0.0000 Cl  0  0  0  0  0  0  0  0  0  0  0  0
    0.0000    1.6000    0.0000 O   0  0  0  0  0  0  0  0  0  0  0  0
    0.0000   -1.6000    0.0000 O   0  0  0  0  0  0  0  0  0  0  0  0
   -4.0000   -6.9282    0.0000 C   0  0  0  0  0  0  0  0  0  0  0  0
   -4.8000   -8.3138    0.0000 C   0  0  0  0  0  0  0  0  0  0  0  0
   -6.4000   -8.3138    0.0000 O   0  0  0  0  0  0  0  0  0  0  0  0
   -7.2000   -6.9282    0.0000 C   0  0  0  0  0  0  0  0  0  0  0  0
   -6.4000   -5.5426    0.0000 C   0  0  0  0  0  0  0  0  0  0  0  0
  1  2  1  0  0  0  0
  1  6  2  0  0  0  0
  2  3  2  0  0  0  0
  2 13  1  0  0  0  0
  3  4  1  0  0  0  0
  4  5  2  0  0  0  0
  5  6  1  0  0  0  0
  5  7  1  0  0  0  0
  7  8  2  0  0  0  0
  7 11  1  0  0  0  0
  8  9  1  0  0  0  0
  9 10  1  0  0  0  0
 10 11  1  0  0  0  0
 11 12  1  0  0  0  0
 13 14  1  0  0  0  0
 13 15  2  0  0  0  0
 14 16  1  0  0  0  0
 14 20  1  0  0  0  0
 16 17  1  0  0  0  0
 17 18  1  0  0  0  0
 18 19  1  0  0  0  0
 18 25  1  6  0  0  0
 19 20  1  0  0  0  0
 20 21  1  6  0  0  0
 21 22  1  0  0  0  0
 22 23  1  0  0  0  0
 22 24  2  0  0  0  0
 23 38  1  0  0  0  0
 23 42  1  0  0  0  0
 25 26  1  0  0  0  0
 25 36  2  0  0  0  0
 25 37  2  0  0  0  0
 26 27  1  0  0  0  0
 26 30  2  0  0  0  0
 27 28  1  0  0  0  0
 28 29  1  0  0  0  0
 28 31  2  0  0  0  0
 29 30  1  0  0  0  0
 29 34  2  0  0  0  0
 31 32  1  0  0  0  0
 32 33  2  0  0  0  0
 32 35  1  0  0  0  0
 33 34  1  0  0  0  0
 38 39  1  0  0  0  0
 39 40  1  0  0  0  0
 40 41  1  0  0  0  0
 41 42  1  0  0  0  0
M  END
> <Acceptable>
false

> <IC50>
<<1

$$$$

Generated by Molecular Materials Informatics

 37 40  0  0  0  0  0  0  0  0999 V2000
   -6.9282    0.8000    0.0000 C   0  0  0  0  0  0  0  0  0  0  0  0
   -6.9282    2.4000    0.0000 C   0  0  0  0  0  0  0  0  0  0  0  0
   -8.3138    3.2000    0.0000 C   0  0  0  0  0  0  0  0  0  0  0  0
   -9.6995    2.4000    0.0000 C   0  0  0  0  0  0  0  0  0  0  0  0
   -9.6995    0.8000    0.0000 C   0  0  0  0  0  0  0  0  0  0  0  0
   -8.3138    0.0000    0.0000 C   0  0  0  0  0  0  0  0  0  0  0  0
   -5.5426    3.2000    0.0000 C   0  0  0  0  0  0  0  0  0  0  0  0
   -4.1569    2.4000    0.0000 N   0  0  0  0  0  0  0  0  0  0  0  0
   -4.1569    0.8000    0.0000 C   0  0  0  0  0  0  0  0  0  0  0  0
   -2.7713    0.0000    0.0000 C   0  0  0  0  0  0  0  0  0  0  0  0
   -1.3856    0.8000    0.0000 N   0  0  0  0  0  0  0  0  0  0  0  0
   -1.3856    2.4000    0.0000 C   0  0  0  0  0  0  0  0  0  0  0  0
   -2.7713    3.2000    0.0000 C   0  0  0  0  0  0  0  0  0  0  0  0
    0.0000    0.0000    0.0000 S   0  0  0  0  0  0  0  0  0  0  0  0
    1.3856   -0.8000    0.0000 C   0  0  0  0  0  0  0  0  0  0  0  0
    1.5529   -2.3912    0.0000 N   0  0  0  0  0  0  0  0  0  0  0  0
    3.1179   -2.7239    0.0000 C   0  0  0  0  0  0  0  0  0  0  0  0
    3.9179   -1.3383    0.0000 C   0  0  0  0  0  0  0  0  0  0  0  0
    2.8473   -0.1492    0.0000 C   0  0  0  0  0  0  0  0  0  0  0  0
    3.9179   -4.1095    0.0000 C   0  0  0  0  0  0  0  0  0  0  0  0
    5.5179   -4.1095    0.0000 C   0  0  0  0  0  0  0  0  0  0  0  0
    6.3179   -2.7239    0.0000 C   0  0  0  0  0  0  0  0  0  0  0  0
    5.5179   -1.3383    0.0000 C   0  0  0  0  0  0  0  0  0  0  0  0
    0.8000    1.3856    0.0000 O   0  0  0  0  0  0  0  0  0  0  0  0
   -0.8000   -1.3856    0.0000 O   0  0  0  0  0  0  0  0  0  0  0  0
   -5.5426    0.0000    0.0000 O   0  0  0  0  0  0  0  0  0  0  0  0
    7.9179   -2.7239    0.0000 Cl  0  0  0  0  0  0  0  0  0  0  0  0
  -11.0851    0.0000    0.0000 C   0  0  0  0  0  0  0  0  0  0  0  0
  -11.0851   -1.6000    0.0000 N   0  0  0  0  0  0  0  0  0  0  0  0
  -12.4708    0.8000    0.0000 N   0  0  0  0  0  0  0  0  0  0  0  0
  -12.4708    2.4000    0.0000 C   0  0  0  0  0  0  0  0  0  0  0  0
  -13.8564    0.0000    0.0000 C   0  0  0  0  0  0  0  0  0  0  0  0
   -2.7713    4.8000    0.0000 C   0  0  0  0  0  0  0  0  0  0  0  0
   -1.3856    5.6000    0.0000 O   0  0  0  0  0  0  0  0  0  0  0  0
   -1.3856    7.2000    0.0000 C   0  0  0  0  0  0  0  0  0  0  0  0
    0.0000    8.0000    0.0000 C   0  0  0  0  0  0  0  0  0  0  0  0
   -4.1569    5.6000    0.0000 O   0  0  0  0  0  0  0  0  0  0  0  0
  1  2  1  0  0  0  0
  1  6  2  0  0  0  0
  2  3  2  0  0  0  0
  2  7  1  0  0  0  0
  3  4  1  0  0  0  0
  4  5  2  0  0  0  0
  5  6  1  0  0  0  0
  5 28  1  0  0  0  0
  7  8  1  0  0  0  0
  8  9  1  0  0  0  0
  8 13  1  0  0  0  0
  9 10  1  0  0  0  0
  9 26  2  0  0  0  0
 10 11  1  0  0  0  0
 11 12  1  0  0  0  0
 11 14  1  1  0  0  0
 12 13  1  0  0  0  0
 13 33  1  1  0  0  0
 14 15  1  0  0  0  0
 14 24  2  0  0  0  0
 14 25  2  0  0  0  0
 15 16  1  0  0  0  0
 15 19  2  0  0  0  0
 16 17  1  0  0  0  0
 17 18  1  0  0  0  0
 17 20  2  0  0  0  0
 18 19  1  0  0  0  0
 18 23  2  0  0  0  0
 20 21  1  0  0  0  0
 21 22  2  0  0  0  0
 22 23  1  0  0  0  0
 22 27  1  0  0  0  0
 28 29  2  0  0  0  0
 28 30  1  0  0  0  0
 30 31  1  0  0  0  0
 30 32  1  0  0  0  0
 33 34  1  0  0  0  0
 33 37  2  0  0  0  0
 34 35  1  0  0  0  0
 35 36  1  0  0  0  0
M  END
> <Acceptable>
false

> <IC50>
<<1

$$$$

Generated by Molecular Materials Informatics

 34 38  0  0  0  0  0  0  0  0999 V2000
   -5.3737   -2.7879    0.0000 C   0  0  0  0  0  0  0  0  0  0  0  0
   -6.6345   -3.7730    0.0000 C   0  0  0  0  0  0  0  0  0  0  0  0
   -8.1180   -3.1736    0.0000 C   0  0  0  0  0  0  0  0  0  0  0  0
   -8.3407   -1.5892    0.0000 C   0  0  0  0  0  0  0  0  0  0  0  0
   -7.0799   -0.6041    0.0000 C   0  0  0  0  0  0  0  0  0  0  0  0
   -5.5964   -1.2035    0.0000 C   0  0  0  0  0  0  0  0  0  0  0  0
   -9.3788   -4.1587    0.0000 C   0  0  0  0  0  0  0  0  0  0  0  0
  -10.8623   -3.5593    0.0000 N   0  0  0  0  0  0  0  0  0  0  0  0
   -9.1561   -5.7431    0.0000 N   0  0  0  0  0  0  0  0  0  0  0  0
  -12.2192   -4.4072    0.0000 C   0  0  0  0  0  0  0  0  0  0  0  0
  -13.4449   -3.3787    0.0000 C   0  0  0  0  0  0  0  0  0  0  0  0
  -12.8455   -1.8952    0.0000 C   0  0  0  0  0  0  0  0  0  0  0  0
  -11.2494   -2.0068    0.0000 C   0  0  0  0  0  0  0  0  0  0  0  0
   -4.3355   -0.2184    0.0000 N   0  0  0  0  0  0  0  0  0  0  0  0
   -2.8521   -0.8178    0.0000 C   0  0  0  0  0  0  0  0  0  0  0  0
   -1.5912    0.1672    0.0000 C   0  0  0  0  0  0  0  0  0  0  0  0
   -2.6294   -2.4022    0.0000 O   0  0  0  0  0  0  0  0  0  0  0  0
   -1.9239    1.7323    0.0000 C   0  0  0  0  0  0  0  0  0  0  0  0
   -0.5383    2.5323    0.0000 C   0  0  0  0  0  0  0  0  0  0  0  0
    0.6508    1.4617    0.0000 N   0  0  0  0  0  0  0  0  0  0  0  0
    0.0000    0.0000    0.0000 N   0  0  0  0  0  0  0  0  0  0  0  0
    0.8000   -1.3856    0.0000 C   0  0  0  0  0  0  0  0  0  0  0  0
    0.0000   -2.7713    0.0000 C   0  0  0  0  0  0  0  0  0  0  0  0
    0.8000   -4.1569    0.0000 C   0  0  0  0  0  0  0  0  0  0  0  0
    2.4000   -4.1569    0.0000 C   0  0  0  0  0  0  0  0  0  0  0  0
    3.2000   -2.7713    0.0000 C   0  0  0  0  0  0  0  0  0  0  0  0
    2.4000   -1.3856    0.0000 C   0  0  0  0  0  0  0  0  0  0  0  0
   -0.3710    4.1235    0.0000 C   0  0  0  0  0  0  0  0  0  0  0  0
    0.0000   -5.5426    0.0000 C   0  0  0  0  0  0  0  0  0  0  0  0
    0.8000   -6.9282    0.0000 C   0  0  0  0  0  0  0  0  0  0  0  0
    2.4000   -6.9282    0.0000 C   0  0  0  0  0  0  0  0  0  0  0  0
    3.2000   -5.5426    0.0000 C   0  0  0  0  0  0  0  0  0  0  0  0
    3.2000    0.0000    0.0000 C   0  0  0  0  0  0  0  0  0  0  0  0
    4.0000    1.3856    0.0000 N   0  0  0  0  0  0  0  0  0  0  0  0
  1  2  1  0  0  0  0
  1  6  2  0  0  0  0
  2  3  2  0  0  0  0
  3  4  1  0  0  0  0
  3  7  1  0  0  0  0
  4  5  2  0  0  0  0
  5  6  1  0  0  0  0
  6 14  1  0  0  0  0
  7  8  1  0  0  0  0
  7  9  2  0  0  0  0
  8 10  1  0  0  0  0
  8 13  1  0  0  0  0
 10 11  1  0  0  0  0
 11 12  1  0  0  0  0
 12 13  1  0  0  0  0
 14 15  1  0  0  0  0
 15 16  1  0  0  0  0
 15 17  2  0  0  0  0
 16 18  2  0  0  0  0
 16 21  1  0  0  0  0
 18 19  1  0  0  0  0
 19 20  2  0  0  0  0
 19 28  1  0  0  0  0
 20 21  1  0  0  0  0
 21 22  1  0  0  0  0
 22 23  2  0  0  0  0
 22 27  1  0  0  0  0
 23 24  1  0  0  0  0
 24 25  1  0  0  0  0
 24 29  2  0  0  0  0
 25 26  1  0  0  0  0
 25 32  2  0  0  0  0
 26 27  2  0  0  0  0
 27 33  1  0  0  0  0
 29 30  1  0  0  0  0
 30 31  2  0  0  0  0
 31 32  1  0  0  0  0
 33 34  3  0  0  0  0
M  END
> <Acceptable>
false

> <IC50>
<<1

$$$$

Generated by Molecular Materials Informatics

 32 34  0  0  0  0  0  0  0  0999 V2000
   -5.5426    0.0000    0.0000 C   0  0  0  0  0  0  0  0  0  0  0  0
   -4.1569    0.8000    0.0000 C   0  0  0  0  0  0  0  0  0  0  0  0
   -2.7713    0.0000    0.0000 C   0  0  0  0  0  0  0  0  0  0  0  0
   -2.7713   -1.6000    0.0000 C   0  0  0  0  0  0  0  0  0  0  0  0
   -4.1569   -2.4000    0.0000 C   0  0  0  0  0  0  0  0  0  0  0  0
   -5.5426   -1.6000    0.0000 C   0  0  0  0  0  0  0  0  0  0  0  0
   -1.3856    2.4000    0.0000 C   0  0  0  0  0  0  0  0  0  0  0  0
    0.0000    3.2000    0.0000 C   0  0  0  0  0  0  0  0  0  0  0  0
    1.3856    2.4000    0.0000 C   0  0  0  0  0  0  0  0  0  0  0  0
    1.3856    0.8000    0.0000 C   0  0  0  0  0  0  0  0  0  0  0  0
    0.0000    0.0000    0.0000 C   0  0  0  0  0  0  0  0  0  0  0  0
   -1.3856    0.8000    0.0000 C   0  0  0  0  0  0  0  0  0  0  0  0
    0.0000   -1.6000    0.0000 S   0  0  0  0  0  0  0  0  0  0  0  0
   -1.6000   -1.6000    0.0000 O   0  0  0  0  0  0  0  0  0  0  0  0
    1.6000   -1.6000    0.0000 O   0  0  0  0  0  0  0  0  0  0  0  0
   -6.9282   -2.4000    0.0000 N   0  0  0  0  0  0  0  0  0  0  0  0
   -8.3138   -1.6000    0.0000 C   0  0  0  0  0  0  0  0  0  0  0  0
   -9.6995   -2.4000    0.0000 C   0  0  0  0  0  0  0  0  0  0  0  0
  -11.0851   -1.6000    0.0000 C   0  0  0  0  0  0  0  0  0  0  0  0
   -9.6995   -4.0000    0.0000 F   0  0  0  0  0  0  0  0  0  0  0  0
  -12.4708   -2.4000    0.0000 C   0  0  0  0  0  0  0  0  0  0  0  0
  -11.0851    0.0000    0.0000 C   0  0  0  0  0  0  0  0  0  0  0  0
  -12.4708    0.8000    0.0000 C   0  0  0  0  0  0  0  0  0  0  0  0
  -12.4708    2.4000    0.0000 C   0  0  0  0  0  0  0  0  0  0  0  0
  -11.0851    3.2000    0.0000 C   0  0  0  0  0  0  0  0  0  0  0  0
   -9.6995    2.4000    0.0000 C   0  0  0  0  0  0  0  0  0  0  0  0
   -9.6995    0.8000    0.0000 C   0  0  0  0  0  0  0  0  0  0  0  0
  -13.8564    3.2000    0.0000 C   0  0  0  0  0  0  0  0  0  0  0  0
  -15.2420    2.4000    0.0000 N   0  0  0  0  0  0  0  0  0  0  0  0
  -13.8564    4.8000    0.0000 N   0  0  0  0  0  0  0  0  0  0  0  0
   -8.3138    0.0000    0.0000 O   0  0  0  0  0  0  0  0  0  0  0  0
    0.0000   -3.2000    0.0000 N   0  0  0  0  0  0  0  0  0  0  0  0
  1  2  1  0  0  0  0
  1  6  2  0  0  0  0
  2  3  2  0  0  0  0
  3  4  1  0  0  0  0
  3 12  1  0  0  0  0
  4  5  2  0  0  0  0
  5  6  1  0  0  0  0
  6 16  1  0  0  0  0
  7  8  1  0  0  0  0
  7 12  2  0  0  0  0
  8  9  2  0  0  0  0
  9 10  1  0  0  0  0
 10 11  2  0  0  0  0
 11 12  1  0  0  0  0
 11 13  1  0  0  0  0
 13 14  2  0  0  0  0
 13 15  2  0  0  0  0
 13 32  1  0  0  0  0
 16 17  1  0  0  0  0
 17 18  1  0  0  0  0
 17 31  2  0  0  0  0
 18 19  2  0  0  0  0
 18 20  1  0  0  0  0
 19 21  1  0  0  0  0
 19 22  1  0  0  0  0
 22 23  1  0  0  0  0
 22 27  2  0  0  0  0
 23 24  2  0  0  0  0
 24 25  1  0  0  0  0
 24 28  1  0  0  0  0
 25 26  2  0  0  0  0
 26 27  1  0  0  0  0
 28 29  2  0  0  0  0
 28 30  1  0  0  0  0
M  END
> <Acceptable>
false

> <IC50>
<<1

$$$$

Generated by Molecular Materials Informatics

 25 27  0  0  0  0  0  0  0  0999 V2000
    0.0000    3.2000    0.0000 C   0  0  0  0  0  0  0  0  0  0  0  0
   -1.3856    2.4000    0.0000 C   0  0  0  0  0  0  0  0  0  0  0  0
   -1.3856    0.8000    0.0000 C   0  0  0  0  0  0  0  0  0  0  0  0
    0.0000    0.0000    0.0000 C   0  0  0  0  0  0  0  0  0  0  0  0
    1.3856    0.8000    0.0000 C   0  0  0  0  0  0  0  0  0  0  0  0
    1.3856    2.4000    0.0000 C   0  0  0  0  0  0  0  0  0  0  0  0
    0.3327   -1.5650    0.0000 C   0  0  0  0  0  0  0  0  0  0  0  0
    2.5747   -0.2706    0.0000 N   0  0  0  0  0  0  0  0  0  0  0  0
    1.9239   -1.7323    0.0000 C   0  0  0  0  0  0  0  0  0  0  0  0
   -0.7380   -2.7541    0.0000 C   0  0  0  0  0  0  0  0  0  0  0  0
    2.7239   -3.1179    0.0000 C   0  0  0  0  0  0  0  0  0  0  0  0
   -2.7713    0.0000    0.0000 N   0  0  0  0  0  0  0  0  0  0  0  0
   -4.1569    0.8000    0.0000 O   0  0  0  0  0  0  0  0  0  0  0  0
   -5.5426    0.0000    0.0000 C   0  0  0  0  0  0  0  0  0  0  0  0
   -6.9282    0.8000    0.0000 N   0  0  0  0  0  0  0  0  0  0  0  0
   -8.3138    0.0000    0.0000 C   0  0  0  0  0  0  0  0  0  0  0  0
   -5.5426   -1.6000    0.0000 O   0  0  0  0  0  0  0  0  0  0  0  0
   -0.2435   -4.2758    0.0000 C   0  0  0  0  0  0  0  0  0  0  0  0
   -9.6995    0.8000    0.0000 C   0  0  0  0  0  0  0  0  0  0  0  0
  -11.0851    0.0000    0.0000 C   0  0  0  0  0  0  0  0  0  0  0  0
  -11.0851   -1.6000    0.0000 C   0  0  0  0  0  0  0  0  0  0  0  0
   -9.6995   -2.4000    0.0000 C   0  0  0  0  0  0  0  0  0  0  0  0
   -8.3138   -1.6000    0.0000 C   0  0  0  0  0  0  0  0  0  0  0  0
    4.3239   -3.1179    0.0000 C   0  0  0  0  0  0  0  0  0  0  0  0
    4.1397    0.0621    0.0000 C   0  0  0  0  0  0  0  0  0  0  0  0
  1  2  1  0  0  0  0
  1  6  1  0  0  0  0
  2  3  1  0  0  0  0
  3  4  1  0  0  0  0
  3 12  2  0  0  0  0
  4  5  2  0  0  0  0
  4  7  1  0  0  0  0
  5  6  1  0  0  0  0
  5  8  1  0  0  0  0
  7  9  2  0  0  0  0
  7 10  1  0  0  0  0
  8  9  1  0  0  0  0
  8 25  1  0  0  0  0
  9 11  1  0  0  0  0
 10 18  1  0  0  0  0
 11 24  1  0  0  0  0
 12 13  1  0  0  0  0
 13 14  1  0  0  0  0
 14 15  1  0  0  0  0
 14 17  2  0  0  0  0
 15 16  1  0  0  0  0
 16 19  1  0  0  0  0
 16 23  2  0  0  0  0
 19 20  2  0  0  0  0
 20 21  1  0  0  0  0
 21 22  2  0  0  0  0
 22 23  1  0  0  0  0
M  END
> <Acceptable>
true

> <IC50>
>30

$$$$

Generated by Molecular Materials Informatics

 23 25  0  0  0  0  0  0  0  0999 V2000
    0.0000    3.2000    0.0000 C   0  0  0  0  0  0  0  0  0  0  0  0
    1.3856    2.4000    0.0000 C   0  0  0  0  0  0  0  0  0  0  0  0
    1.3856    0.8000    0.0000 C   0  0  0  0  0  0  0  0  0  0  0  0
    0.0000    0.0000    0.0000 C   0  0  0  0  0  0  0  0  0  0  0  0
   -1.3856    0.8000    0.0000 C   0  0  0  0  0  0  0  0  0  0  0  0
   -1.3856    2.4000    0.0000 C   0  0  0  0  0  0  0  0  0  0  0  0
   -0.3327   -1.5650    0.0000 C   0  0  0  0  0  0  0  0  0  0  0  0
   -2.5747   -0.2706    0.0000 N   0  0  0  0  0  0  0  0  0  0  0  0
   -1.9239   -1.7323    0.0000 C   0  0  0  0  0  0  0  0  0  0  0  0
    0.7380   -2.7541    0.0000 C   0  0  0  0  0  0  0  0  0  0  0  0
   -2.7239   -3.1179    0.0000 C   0  0  0  0  0  0  0  0  0  0  0  0
    2.7713    0.0000    0.0000 N   0  0  0  0  0  0  0  0  0  0  0  0
    4.1569    0.8000    0.0000 O   0  0  0  0  0  0  0  0  0  0  0  0
    5.5426    0.0000    0.0000 C   0  0  0  0  0  0  0  0  0  0  0  0
    6.9282    0.8000    0.0000 N   0  0  0  0  0  0  0  0  0  0  0  0
    8.3138    0.0000    0.0000 C   0  0  0  0  0  0  0  0  0  0  0  0
    5.5426   -1.6000    0.0000 O   0  0  0  0  0  0  0  0  0  0  0  0
    0.2435   -4.2758    0.0000 C   0  0  0  0  0  0  0  0  0  0  0  0
    9.6995    0.8000    0.0000 C   0  0  0  0  0  0  0  0  0  0  0  0
   11.0851    0.0000    0.0000 C   0  0  0  0  0  0  0  0  0  0  0  0
   11.0851   -1.6000    0.0000 C   0  0  0  0  0  0  0  0  0  0  0  0
    9.6995   -2.4000    0.0000 C   0  0  0  0  0  0  0  0  0  0  0  0
    8.3138   -1.6000    0.0000 C   0  0  0  0  0  0  0  0  0  0  0  0
  1  2  1  0  0  0  0
  1  6  1  0  0  0  0
  2  3  1  0  0  0  0
  3  4  1  0  0  0  0
  3 12  2  0  0  0  0
  4  5  2  0  0  0  0
  4  7  1  0  0  0  0
  5  6  1  0  0  0  0
  5  8  1  0  0  0  0
  7  9  2  0  0  0  0
  7 10  1  0  0  0  0
  8  9  1  0  0  0  0
  9 11  1  0  0  0  0
 10 18  1  0  0  0  0
 12 13  1  0  0  0  0
 13 14  1  0  0  0  0
 14 15  1  0  0  0  0
 14 17  2  0  0  0  0
 15 16  1  0  0  0  0
 16 19  1  0  0  0  0
 16 23  2  0  0  0  0
 19 20  2  0  0  0  0
 20 21  1  0  0  0  0
 21 22  2  0  0  0  0
 22 23  1  0  0  0  0
M  END
> <Acceptable>
true

> <IC50>
>30

$$$$

Generated by Molecular Materials Informatics

 23 25  0  0  0  0  0  0  0  0999 V2000
    0.0000    3.2000    0.0000 C   0  0  0  0  0  0  0  0  0  0  0  0
    1.3856    2.4000    0.0000 C   0  0  0  0  0  0  0  0  0  0  0  0
    1.3856    0.8000    0.0000 C   0  0  0  0  0  0  0  0  0  0  0  0
    0.0000    0.0000    0.0000 C   0  0  0  0  0  0  0  0  0  0  0  0
   -1.3856    0.8000    0.0000 C   0  0  0  0  0  0  0  0  0  0  0  0
   -1.3856    2.4000    0.0000 C   0  0  0  0  0  0  0  0  0  0  0  0
   -0.3327   -1.5650    0.0000 C   0  0  0  0  0  0  0  0  0  0  0  0
   -2.5747   -0.2706    0.0000 N   0  0  0  0  0  0  0  0  0  0  0  0
   -1.9239   -1.7323    0.0000 C   0  0  0  0  0  0  0  0  0  0  0  0
    0.7380   -2.7541    0.0000 C   0  0  0  0  0  0  0  0  0  0  0  0
   -2.7239   -3.1179    0.0000 C   0  0  0  0  0  0  0  0  0  0  0  0
    2.7713    0.0000    0.0000 N   0  0  0  0  0  0  0  0  0  0  0  0
    4.1569    0.8000    0.0000 N   0  0  0  0  0  0  0  0  0  0  0  0
    5.5426    0.0000    0.0000 C   0  0  0  0  0  0  0  0  0  0  0  0
    6.9282    0.8000    0.0000 N   0  0  0  0  0  0  0  0  0  0  0  0
    8.3138    0.0000    0.0000 C   0  0  0  0  0  0  0  0  0  0  0  0
    5.5426   -1.6000    0.0000 O   0  0  0  0  0  0  0  0  0  0  0  0
    0.2435   -4.2758    0.0000 C   0  0  0  0  0  0  0  0  0  0  0  0
    9.6995    0.8000    0.0000 C   0  0  0  0  0  0  0  0  0  0  0  0
   11.0851    0.0000    0.0000 C   0  0  0  0  0  0  0  0  0  0  0  0
   11.0851   -1.6000    0.0000 C   0  0  0  0  0  0  0  0  0  0  0  0
    9.6995   -2.4000    0.0000 C   0  0  0  0  0  0  0  0  0  0  0  0
    8.3138   -1.6000    0.0000 C   0  0  0  0  0  0  0  0  0  0  0  0
  1  2  1  0  0  0  0
  1  6  1  0  0  0  0
  2  3  1  0  0  0  0
  3  4  1  0  0  0  0
  3 12  2  0  0  0  0
  4  5  2  0  0  0  0
  4  7  1  0  0  0  0
  5  6  1  0  0  0  0
  5  8  1  0  0  0  0
  7  9  2  0  0  0  0
  7 10  1  0  0  0  0
  8  9  1  0  0  0  0
  9 11  1  0  0  0  0
 10 18  1  0  0  0  0
 12 13  1  0  0  0  0
 13 14  1  0  0  0  0
 14 15  1  0  0  0  0
 14 17  2  0  0  0  0
 15 16  1  0  0  0  0
 16 19  1  0  0  0  0
 16 23  2  0  0  0  0
 19 20  2  0  0  0  0
 20 21  1  0  0  0  0
 21 22  2  0  0  0  0
 22 23  1  0  0  0  0
M  END
> <Acceptable>
false

> <IC50>
21

$$$$

Generated by Molecular Materials Informatics

 30 34  0  0  0  0  0  0  0  0999 V2000
    1.1890    1.0706    0.0000 C   0  0  0  0  0  0  0  0  0  0  0  0
    0.0000    0.0000    0.0000 C   0  0  0  0  0  0  0  0  0  0  0  0
    2.7541    0.7379    0.0000 C   0  0  0  0  0  0  0  0  0  0  0  0
    0.5383    2.5323    0.0000 C   0  0  0  0  0  0  0  0  0  0  0  0
   -1.3856    0.8000    0.0000 C   0  0  0  0  0  0  0  0  0  0  0  0
    0.0000   -1.6000    0.0000 C   0  0  0  0  0  0  0  0  0  0  0  0
    3.8247    1.9270    0.0000 C   0  0  0  0  0  0  0  0  0  0  0  0
    3.2485   -0.7837    0.0000 C   0  0  0  0  0  0  0  0  0  0  0  0
   -1.0530    2.3650    0.0000 N   0  0  0  0  0  0  0  0  0  0  0  0
   -2.7713    0.0000    0.0000 C   0  0  0  0  0  0  0  0  0  0  0  0
   -1.3856   -2.4000    0.0000 C   0  0  0  0  0  0  0  0  0  0  0  0
    5.3897    1.5943    0.0000 C   0  0  0  0  0  0  0  0  0  0  0  0
    4.8135   -1.1164    0.0000 C   0  0  0  0  0  0  0  0  0  0  0  0
   -2.1236    3.5541    0.0000 C   0  0  0  0  0  0  0  0  0  0  0  0
   -2.7713   -1.6000    0.0000 C   0  0  0  0  0  0  0  0  0  0  0  0
   -1.3856   -4.0000    0.0000 Cl  0  0  0  0  0  0  0  0  0  0  0  0
    5.8841    0.0726    0.0000 N   0  0  0  0  0  0  0  0  0  0  0  0
   -3.6886    3.2214    0.0000 C   0  0  0  0  0  0  0  0  0  0  0  0
   -1.6292    5.0758    0.0000 C   0  0  0  0  0  0  0  0  0  0  0  0
    7.4492   -0.2600    0.0000 C   0  0  0  0  0  0  0  0  0  0  0  0
   -4.7592    4.4104    0.0000 C   0  0  0  0  0  0  0  0  0  0  0  0
   -2.6998    6.2648    0.0000 C   0  0  0  0  0  0  0  0  0  0  0  0
    8.5198    0.9290    0.0000 C   0  0  0  0  0  0  0  0  0  0  0  0
   -4.2648    5.9321    0.0000 C   0  0  0  0  0  0  0  0  0  0  0  0
   10.0848    0.5963    0.0000 N   0  0  0  0  0  0  0  0  0  0  0  0
   11.2739    1.6670    0.0000 C   0  0  0  0  0  0  0  0  0  0  0  0
   10.7356   -0.8653    0.0000 C   0  0  0  0  0  0  0  0  0  0  0  0
   12.6595    0.8670    0.0000 N   0  0  0  0  0  0  0  0  0  0  0  0
   11.1066    3.2582    0.0000 O   0  0  0  0  0  0  0  0  0  0  0  0
   12.3268   -0.6981    0.0000 C   0  0  0  0  0  0  0  0  0  0  0  0
  1  2  1  0  0  0  0
  3  1  1  6  0  0  0
  1  4  2  0  0  0  0
  2  5  2  0  0  0  0
  2  6  1  0  0  0  0
  3  7  1  0  0  0  0
  3  8  1  0  0  0  0
  4  9  1  0  0  0  0
  5  9  1  0  0  0  0
  5 10  1  0  0  0  0
  6 11  2  0  0  0  0
  7 12  1  0  0  0  0
  8 13  1  0  0  0  0
  9 14  1  0  0  0  0
 10 15  2  0  0  0  0
 11 15  1  0  0  0  0
 11 16  1  0  0  0  0
 12 17  1  0  0  0  0
 13 17  1  0  0  0  0
 14 18  2  0  0  0  0
 14 19  1  0  0  0  0
 17 20  1  1  0  0  0
 18 21  1  0  0  0  0
 19 22  2  0  0  0  0
 20 23  1  0  0  0  0
 21 24  2  0  0  0  0
 22 24  1  0  0  0  0
 23 25  1  0  0  0  0
 25 26  1  0  0  0  0
 25 27  1  0  0  0  0
 26 28  1  0  0  0  0
 26 29  2  0  0  0  0
 27 30  1  0  0  0  0
 28 30  1  0  0  0  0
M  END
> <Acceptable>
false

> <IC50>
0.088

$$$$

Generated by Molecular Materials Informatics

 31 35  0  0  0  0  0  0  0  0999 V2000
   -1.1890    1.0706    0.0000 C   0  0  0  0  0  0  0  0  0  0  0  0
    0.0000    0.0000    0.0000 C   0  0  0  0  0  0  0  0  0  0  0  0
   -2.7541    0.7379    0.0000 C   0  0  0  0  0  0  0  0  0  0  0  0
   -0.5383    2.5323    0.0000 C   0  0  0  0  0  0  0  0  0  0  0  0
    1.3856    0.8000    0.0000 C   0  0  0  0  0  0  0  0  0  0  0  0
    0.0000   -1.6000    0.0000 C   0  0  0  0  0  0  0  0  0  0  0  0
   -3.8247    1.9270    0.0000 C   0  0  0  0  0  0  0  0  0  0  0  0
   -3.2485   -0.7837    0.0000 C   0  0  0  0  0  0  0  0  0  0  0  0
    1.0530    2.3650    0.0000 N   0  0  0  0  0  0  0  0  0  0  0  0
    2.7713    0.0000    0.0000 C   0  0  0  0  0  0  0  0  0  0  0  0
    1.3856   -2.4000    0.0000 C   0  0  0  0  0  0  0  0  0  0  0  0
   -5.3897    1.5943    0.0000 C   0  0  0  0  0  0  0  0  0  0  0  0
   -4.8135   -1.1164    0.0000 C   0  0  0  0  0  0  0  0  0  0  0  0
    2.1236    3.5541    0.0000 C   0  0  0  0  0  0  0  0  0  0  0  0
    2.7713   -1.6000    0.0000 C   0  0  0  0  0  0  0  0  0  0  0  0
    1.3856   -4.0000    0.0000 Cl  0  0  0  0  0  0  0  0  0  0  0  0
   -5.8841    0.0726    0.0000 N   0  0  0  0  0  0  0  0  0  0  0  0
    3.6886    3.2214    0.0000 C   0  0  0  0  0  0  0  0  0  0  0  0
    1.6292    5.0758    0.0000 C   0  0  0  0  0  0  0  0  0  0  0  0
   -7.4492   -0.2600    0.0000 C   0  0  0  0  0  0  0  0  0  0  0  0
    4.7592    4.4104    0.0000 C   0  0  0  0  0  0  0  0  0  0  0  0
    2.6998    6.2648    0.0000 C   0  0  0  0  0  0  0  0  0  0  0  0
   -8.5198    0.9290    0.0000 C   0  0  0  0  0  0  0  0  0  0  0  0
    4.2648    5.9321    0.0000 C   0  0  0  0  0  0  0  0  0  0  0  0
  -10.0848    0.5963    0.0000 N   0  0  0  0  0  0  0  0  0  0  0  0
  -11.2739    1.6670    0.0000 C   0  0  0  0  0  0  0  0  0  0  0  0
  -10.7356   -0.8653    0.0000 C   0  0  0  0  0  0  0  0  0  0  0  0
  -12.6595    0.8670    0.0000 N   0  0  0  0  0  0  0  0  0  0  0  0
  -11.1066    3.2582    0.0000 O   0  0  0  0  0  0  0  0  0  0  0  0
  -12.3268   -0.6981    0.0000 C   0  0  0  0  0  0  0  0  0  0  0  0
    5.3354    7.1212    0.0000 F   0  0  0  0  0  0  0  0  0  0  0  0
  1  2  1  0  0  0  0
  1  3  1  0  0  0  0
  1  4  2  0  0  0  0
  2  5  2  0  0  0  0
  2  6  1  0  0  0  0
  3  7  2  0  0  0  0
  3  8  1  0  0  0  0
  4  9  1  0  0  0  0
  5  9  1  0  0  0  0
  5 10  1  0  0  0  0
  6 11  2  0  0  0  0
  7 12  1  0  0  0  0
  8 13  1  0  0  0  0
  9 14  1  0  0  0  0
 10 15  2  0  0  0  0
 11 15  1  0  0  0  0
 11 16  1  0  0  0  0
 12 17  1  0  0  0  0
 13 17  1  0  0  0  0
 14 18  2  0  0  0  0
 14 19  1  0  0  0  0
 17 20  1  6  0  0  0
 18 21  1  0  0  0  0
 19 22  2  0  0  0  0
 20 23  1  0  0  0  0
 21 24  2  0  0  0  0
 22 24  1  0  0  0  0
 23 25  1  0  0  0  0
 24 31  1  0  0  0  0
 25 26  1  0  0  0  0
 25 27  1  0  0  0  0
 26 28  1  0  0  0  0
 26 29  2  0  0  0  0
 27 30  1  0  0  0  0
 28 30  1  0  0  0  0
M  END
> <Acceptable>
false

> <IC50>
0.01

$$$$

Generated by Molecular Materials Informatics

 30 34  0  0  0  0  0  0  0  0999 V2000
    0.0000    0.0000    0.0000 C   0  0  0  0  0  0  0  0  0  0  0  0
   -1.1890   -1.0706    0.0000 C   0  0  0  0  0  0  0  0  0  0  0  0
    1.5650   -0.3327    0.0000 C   0  0  0  0  0  0  0  0  0  0  0  0
   -0.6508    1.4617    0.0000 C   0  0  0  0  0  0  0  0  0  0  0  0
   -2.5747   -0.2706    0.0000 C   0  0  0  0  0  0  0  0  0  0  0  0
   -1.1890   -2.6706    0.0000 C   0  0  0  0  0  0  0  0  0  0  0  0
    2.6356    0.8564    0.0000 C   0  0  0  0  0  0  0  0  0  0  0  0
    2.0595   -1.8544    0.0000 C   0  0  0  0  0  0  0  0  0  0  0  0
   -2.2420    1.2944    0.0000 N   0  0  0  0  0  0  0  0  0  0  0  0
   -3.9603   -1.0706    0.0000 C   0  0  0  0  0  0  0  0  0  0  0  0
   -2.5747   -3.4706    0.0000 C   0  0  0  0  0  0  0  0  0  0  0  0
    4.2007    0.5237    0.0000 C   0  0  0  0  0  0  0  0  0  0  0  0
    3.6245   -2.1870    0.0000 C   0  0  0  0  0  0  0  0  0  0  0  0
   -3.3126    2.4835    0.0000 C   0  0  0  0  0  0  0  0  0  0  0  0
   -3.9603   -2.6706    0.0000 C   0  0  0  0  0  0  0  0  0  0  0  0
    4.6951   -0.9980    0.0000 N   0  0  0  0  0  0  0  0  0  0  0  0
   -4.8777    2.1508    0.0000 C   0  0  0  0  0  0  0  0  0  0  0  0
   -2.8182    4.0052    0.0000 C   0  0  0  0  0  0  0  0  0  0  0  0
    6.2601   -1.3306    0.0000 C   0  0  0  0  0  0  0  0  0  0  0  0
   -5.9483    3.3398    0.0000 C   0  0  0  0  0  0  0  0  0  0  0  0
   -3.8888    5.1942    0.0000 C   0  0  0  0  0  0  0  0  0  0  0  0
    7.3308   -0.1416    0.0000 C   0  0  0  0  0  0  0  0  0  0  0  0
   -5.4538    4.8615    0.0000 C   0  0  0  0  0  0  0  0  0  0  0  0
    8.8958   -0.4743    0.0000 N   0  0  0  0  0  0  0  0  0  0  0  0
   -6.5244    6.0506    0.0000 F   0  0  0  0  0  0  0  0  0  0  0  0
   10.0848    0.5963    0.0000 C   0  0  0  0  0  0  0  0  0  0  0  0
    9.5466   -1.9359    0.0000 C   0  0  0  0  0  0  0  0  0  0  0  0
   11.4705   -0.2037    0.0000 N   0  0  0  0  0  0  0  0  0  0  0  0
    9.9176    2.1876    0.0000 O   0  0  0  0  0  0  0  0  0  0  0  0
   11.1378   -1.7687    0.0000 C   0  0  0  0  0  0  0  0  0  0  0  0
  1  2  1  0  0  0  0
  3  1  1  6  0  0  0
  1  4  2  0  0  0  0
  2  5  2  0  0  0  0
  2  6  1  0  0  0  0
  3  7  1  0  0  0  0
  3  8  1  0  0  0  0
  4  9  1  0  0  0  0
  5  9  1  0  0  0  0
  5 10  1  0  0  0  0
  6 11  2  0  0  0  0
  7 12  1  0  0  0  0
  8 13  1  0  0  0  0
  9 14  1  0  0  0  0
 10 15  2  0  0  0  0
 11 15  1  0  0  0  0
 12 16  1  0  0  0  0
 13 16  1  0  0  0  0
 14 17  2  0  0  0  0
 14 18  1  0  0  0  0
 16 19  1  1  0  0  0
 17 20  1  0  0  0  0
 18 21  2  0  0  0  0
 19 22  1  0  0  0  0
 20 23  2  0  0  0  0
 21 23  1  0  0  0  0
 22 24  1  0  0  0  0
 23 25  1  0  0  0  0
 24 26  1  0  0  0  0
 24 27  1  0  0  0  0
 26 28  1  0  0  0  0
 26 29  2  0  0  0  0
 27 30  1  0  0  0  0
 28 30  1  0  0  0  0
M  END
> <Acceptable>
false

> <IC50>
0.007

$$$$

Generated by Molecular Materials Informatics

 34 38  0  0  0  0  0  0  0  0999 V2000
   -0.4944    1.5217    0.0000 C   0  0  0  0  0  0  0  0  0  0  0  0
    0.0000    0.0000    0.0000 C   0  0  0  0  0  0  0  0  0  0  0  0
   -2.0161    2.0161    0.0000 C   0  0  0  0  0  0  0  0  0  0  0  0
    0.8000    2.4621    0.0000 C   0  0  0  0  0  0  0  0  0  0  0  0
    1.6000    0.0000    0.0000 C   0  0  0  0  0  0  0  0  0  0  0  0
   -0.8000   -1.3856    0.0000 C   0  0  0  0  0  0  0  0  0  0  0  0
   -2.3488    3.5812    0.0000 C   0  0  0  0  0  0  0  0  0  0  0  0
   -3.2052    0.9455    0.0000 C   0  0  0  0  0  0  0  0  0  0  0  0
    2.0944    1.5217    0.0000 N   0  0  0  0  0  0  0  0  0  0  0  0
    2.4000   -1.3856    0.0000 C   0  0  0  0  0  0  0  0  0  0  0  0
    0.0000   -2.7713    0.0000 C   0  0  0  0  0  0  0  0  0  0  0  0
   -3.8705    4.0756    0.0000 C   0  0  0  0  0  0  0  0  0  0  0  0
   -4.7268    1.4399    0.0000 C   0  0  0  0  0  0  0  0  0  0  0  0
    3.6161    2.0161    0.0000 C   0  0  0  0  0  0  0  0  0  0  0  0
    1.6000   -2.7713    0.0000 C   0  0  0  0  0  0  0  0  0  0  0  0
   -0.8000   -4.1569    0.0000 Cl  0  0  0  0  0  0  0  0  0  0  0  0
   -5.0595    3.0050    0.0000 N   0  0  0  0  0  0  0  0  0  0  0  0
    4.8052    0.9455    0.0000 C   0  0  0  0  0  0  0  0  0  0  0  0
    3.9488    3.5812    0.0000 C   0  0  0  0  0  0  0  0  0  0  0  0
   -6.5812    3.4994    0.0000 C   0  0  0  0  0  0  0  0  0  0  0  0
    6.3268    1.4399    0.0000 C   0  0  0  0  0  0  0  0  0  0  0  0
    5.4705    4.0756    0.0000 C   0  0  0  0  0  0  0  0  0  0  0  0
   -6.9139    5.0644    0.0000 C   0  0  0  0  0  0  0  0  0  0  0  0
    6.6595    3.0050    0.0000 C   0  0  0  0  0  0  0  0  0  0  0  0
   -8.4355    5.5589    0.0000 N   0  0  0  0  0  0  0  0  0  0  0  0
   -8.9300    7.0805    0.0000 C   0  0  0  0  0  0  0  0  0  0  0  0
   -9.7300    4.6184    0.0000 C   0  0  0  0  0  0  0  0  0  0  0  0
  -10.5300    7.0805    0.0000 N   0  0  0  0  0  0  0  0  0  0  0  0
   -7.9895    8.3750    0.0000 O   0  0  0  0  0  0  0  0  0  0  0  0
  -11.0244    5.5589    0.0000 C   0  0  0  0  0  0  0  0  0  0  0  0
    8.5138    5.0644    0.0000 C   0  0  0  0  0  0  0  0  0  0  0  0
    7.3248    6.1350    0.0000 O   0  0  0  0  0  0  0  0  0  0  0  0
   10.0355    5.5589    0.0000 O   0  0  0  0  0  0  0  0  0  0  0  0
    8.1812    3.4994    0.0000 C   0  0  0  0  0  0  0  0  0  0  0  0
  1  2  1  0  0  0  0
  3  1  1  1  0  0  0
  1  4  2  0  0  0  0
  2  5  2  0  0  0  0
  2  6  1  0  0  0  0
  3  7  1  0  0  0  0
  3  8  1  0  0  0  0
  4  9  1  0  0  0  0
  5  9  1  0  0  0  0
  5 10  1  0  0  0  0
  6 11  2  0  0  0  0
  7 12  1  0  0  0  0
  8 13  1  0  0  0  0
  9 14  1  0  0  0  0
 10 15  2  0  0  0  0
 11 15  1  0  0  0  0
 11 16  1  0  0  0  0
 12 17  1  0  0  0  0
 13 17  1  0  0  0  0
 14 18  2  0  0  0  0
 14 19  1  0  0  0  0
 17 20  1  6  0  0  0
 18 21  1  0  0  0  0
 19 22  2  0  0  0  0
 20 23  1  0  0  0  0
 21 24  2  0  0  0  0
 22 24  1  0  0  0  0
 23 25  1  0  0  0  0
 24 34  1  0  0  0  0
 25 26  1  0  0  0  0
 25 27  1  0  0  0  0
 26 28  1  0  0  0  0
 26 29  2  0  0  0  0
 27 30  1  0  0  0  0
 28 30  1  0  0  0  0
 31 32  2  0  0  0  0
 31 33  1  0  0  0  0
 31 34  1  0  0  0  0
M  END
> <Acceptable>
false

> <IC50>
0.579

$$$$

Generated by Molecular Materials Informatics

 33 37  0  0  0  0  0  0  0  0999 V2000
   -0.4944    1.5217    0.0000 C   0  0  0  0  0  0  0  0  0  0  0  0
    0.0000    0.0000    0.0000 C   0  0  0  0  0  0  0  0  0  0  0  0
   -2.0161    2.0161    0.0000 C   0  0  0  0  0  0  0  0  0  0  0  0
    0.8000    2.4621    0.0000 C   0  0  0  0  0  0  0  0  0  0  0  0
    1.6000    0.0000    0.0000 C   0  0  0  0  0  0  0  0  0  0  0  0
   -0.8000   -1.3856    0.0000 C   0  0  0  0  0  0  0  0  0  0  0  0
   -2.3488    3.5812    0.0000 C   0  0  0  0  0  0  0  0  0  0  0  0
   -3.2052    0.9455    0.0000 C   0  0  0  0  0  0  0  0  0  0  0  0
    2.0944    1.5217    0.0000 N   0  0  0  0  0  0  0  0  0  0  0  0
    2.4000   -1.3856    0.0000 C   0  0  0  0  0  0  0  0  0  0  0  0
    0.0000   -2.7713    0.0000 C   0  0  0  0  0  0  0  0  0  0  0  0
   -3.8705    4.0756    0.0000 C   0  0  0  0  0  0  0  0  0  0  0  0
   -4.7268    1.4399    0.0000 C   0  0  0  0  0  0  0  0  0  0  0  0
    3.6161    2.0161    0.0000 C   0  0  0  0  0  0  0  0  0  0  0  0
    1.6000   -2.7713    0.0000 C   0  0  0  0  0  0  0  0  0  0  0  0
   -0.8000   -4.1569    0.0000 Cl  0  0  0  0  0  0  0  0  0  0  0  0
   -5.0595    3.0050    0.0000 N   0  0  0  0  0  0  0  0  0  0  0  0
    4.8052    0.9455    0.0000 C   0  0  0  0  0  0  0  0  0  0  0  0
    3.9488    3.5812    0.0000 C   0  0  0  0  0  0  0  0  0  0  0  0
   -6.5812    3.4994    0.0000 C   0  0  0  0  0  0  0  0  0  0  0  0
    6.3268    1.4399    0.0000 C   0  0  0  0  0  0  0  0  0  0  0  0
    5.4705    4.0756    0.0000 C   0  0  0  0  0  0  0  0  0  0  0  0
   -6.9139    5.0644    0.0000 C   0  0  0  0  0  0  0  0  0  0  0  0
    6.6595    3.0050    0.0000 C   0  0  0  0  0  0  0  0  0  0  0  0
   -8.4355    5.5589    0.0000 N   0  0  0  0  0  0  0  0  0  0  0  0
   -8.9300    7.0805    0.0000 C   0  0  0  0  0  0  0  0  0  0  0  0
   -9.7300    4.6184    0.0000 C   0  0  0  0  0  0  0  0  0  0  0  0
  -10.5300    7.0805    0.0000 N   0  0  0  0  0  0  0  0  0  0  0  0
   -7.9895    8.3750    0.0000 O   0  0  0  0  0  0  0  0  0  0  0  0
  -11.0244    5.5589    0.0000 C   0  0  0  0  0  0  0  0  0  0  0  0
    9.3702    2.4288    0.0000 O   0  0  0  0  0  0  0  0  0  0  0  0
    8.1812    3.4994    0.0000 C   0  0  0  0  0  0  0  0  0  0  0  0
    8.5138    5.0644    0.0000 O   0  0  0  0  0  0  0  0  0  0  0  0
  1  2  1  0  0  0  0
  3  1  1  1  0  0  0
  1  4  2  0  0  0  0
  2  5  2  0  0  0  0
  2  6  1  0  0  0  0
  3  7  1  0  0  0  0
  3  8  1  0  0  0  0
  4  9  1  0  0  0  0
  5  9  1  0  0  0  0
  5 10  1  0  0  0  0
  6 11  2  0  0  0  0
  7 12  1  0  0  0  0
  8 13  1  0  0  0  0
  9 14  1  0  0  0  0
 10 15  2  0  0  0  0
 11 15  1  0  0  0  0
 11 16  1  0  0  0  0
 12 17  1  0  0  0  0
 13 17  1  0  0  0  0
 14 18  2  0  0  0  0
 14 19  1  0  0  0  0
 17 20  1  6  0  0  0
 18 21  1  0  0  0  0
 19 22  2  0  0  0  0
 20 23  1  0  0  0  0
 21 24  2  0  0  0  0
 22 24  1  0  0  0  0
 23 25  1  0  0  0  0
 24 32  1  0  0  0  0
 25 26  1  0  0  0  0
 25 27  1  0  0  0  0
 26 28  1  0  0  0  0
 26 29  2  0  0  0  0
 27 30  1  0  0  0  0
 28 30  1  0  0  0  0
 31 32  1  0  0  0  0
 32 33  2  0  0  0  0
M  END
> <Acceptable>
true

> <IC50>
75

$$$$

Generated by Molecular Materials Informatics

 30 34  0  0  0  0  0  0  0  0999 V2000
   -1.1890    1.0706    0.0000 C   0  0  0  0  0  0  0  0  0  0  0  0
    0.0000    0.0000    0.0000 C   0  0  0  0  0  0  0  0  0  0  0  0
   -2.7541    0.7379    0.0000 C   0  0  0  0  0  0  0  0  0  0  0  0
   -0.5383    2.5323    0.0000 C   0  0  0  0  0  0  0  0  0  0  0  0
    1.3856    0.8000    0.0000 C   0  0  0  0  0  0  0  0  0  0  0  0
    0.0000   -1.6000    0.0000 C   0  0  0  0  0  0  0  0  0  0  0  0
   -3.8247    1.9270    0.0000 C   0  0  0  0  0  0  0  0  0  0  0  0
   -3.2485   -0.7837    0.0000 C   0  0  0  0  0  0  0  0  0  0  0  0
    1.0530    2.3650    0.0000 N   0  0  0  0  0  0  0  0  0  0  0  0
    2.7713    0.0000    0.0000 C   0  0  0  0  0  0  0  0  0  0  0  0
    1.3856   -2.4000    0.0000 C   0  0  0  0  0  0  0  0  0  0  0  0
   -5.3897    1.5943    0.0000 C   0  0  0  0  0  0  0  0  0  0  0  0
   -4.8135   -1.1164    0.0000 C   0  0  0  0  0  0  0  0  0  0  0  0
    2.1236    3.5541    0.0000 C   0  0  0  0  0  0  0  0  0  0  0  0
    2.7713   -1.6000    0.0000 C   0  0  0  0  0  0  0  0  0  0  0  0
    1.3856   -4.0000    0.0000 Cl  0  0  0  0  0  0  0  0  0  0  0  0
   -5.8841    0.0726    0.0000 N   0  0  0  0  0  0  0  0  0  0  0  0
   -7.4492   -0.2600    0.0000 C   0  0  0  0  0  0  0  0  0  0  0  0
   -8.5198    0.9290    0.0000 C   0  0  0  0  0  0  0  0  0  0  0  0
  -10.0848    0.5963    0.0000 N   0  0  0  0  0  0  0  0  0  0  0  0
  -11.2739    1.6670    0.0000 C   0  0  0  0  0  0  0  0  0  0  0  0
  -10.7356   -0.8653    0.0000 C   0  0  0  0  0  0  0  0  0  0  0  0
  -12.6595    0.8670    0.0000 N   0  0  0  0  0  0  0  0  0  0  0  0
  -11.1066    3.2582    0.0000 O   0  0  0  0  0  0  0  0  0  0  0  0
  -12.3268   -0.6981    0.0000 C   0  0  0  0  0  0  0  0  0  0  0  0
    3.6886    3.2214    0.0000 C   0  0  0  0  0  0  0  0  0  0  0  0
    1.6292    5.0758    0.0000 C   0  0  0  0  0  0  0  0  0  0  0  0
    2.6998    6.2648    0.0000 C   0  0  0  0  0  0  0  0  0  0  0  0
    4.2648    5.9321    0.0000 C   0  0  0  0  0  0  0  0  0  0  0  0
    4.7592    4.4104    0.0000 C   0  0  0  0  0  0  0  0  0  0  0  0
  1  2  1  0  0  0  0
  3  1  1  1  0  0  0
  1  4  2  0  0  0  0
  2  5  2  0  0  0  0
  2  6  1  0  0  0  0
  3  7  1  0  0  0  0
  3  8  1  0  0  0  0
  4  9  1  0  0  0  0
  5  9  1  0  0  0  0
  5 10  1  0  0  0  0
  6 11  2  0  0  0  0
  7 12  1  0  0  0  0
  8 13  1  0  0  0  0
  9 14  1  0  0  0  0
 10 15  2  0  0  0  0
 11 15  1  0  0  0  0
 11 16  1  0  0  0  0
 12 17  1  0  0  0  0
 13 17  1  0  0  0  0
 14 26  1  0  0  0  0
 14 27  1  0  0  0  0
 17 18  1  6  0  0  0
 18 19  1  0  0  0  0
 19 20  1  0  0  0  0
 20 21  1  0  0  0  0
 20 22  1  0  0  0  0
 21 23  1  0  0  0  0
 21 24  2  0  0  0  0
 22 25  1  0  0  0  0
 23 25  1  0  0  0  0
 26 30  1  0  0  0  0
 27 28  1  0  0  0  0
 28 29  1  0  0  0  0
 29 30  1  0  0  0  0
M  END
> <Acceptable>
false

> <IC50>
0.137

$$$$

Generated by Molecular Materials Informatics

 35 39  0  0  0  0  0  0  0  0999 V2000
   -0.4944    1.5217    0.0000 C   0  0  0  0  0  0  0  0  0  0  0  0
    0.0000    0.0000    0.0000 C   0  0  0  0  0  0  0  0  0  0  0  0
   -2.0161    2.0161    0.0000 C   0  0  0  0  0  0  0  0  0  0  0  0
    0.8000    2.4621    0.0000 C   0  0  0  0  0  0  0  0  0  0  0  0
    1.6000    0.0000    0.0000 C   0  0  0  0  0  0  0  0  0  0  0  0
   -0.8000   -1.3856    0.0000 C   0  0  0  0  0  0  0  0  0  0  0  0
   -2.3488    3.5812    0.0000 C   0  0  0  0  0  0  0  0  0  0  0  0
   -3.2052    0.9455    0.0000 C   0  0  0  0  0  0  0  0  0  0  0  0
    2.0944    1.5217    0.0000 N   0  0  0  0  0  0  0  0  0  0  0  0
    2.4000   -1.3856    0.0000 C   0  0  0  0  0  0  0  0  0  0  0  0
    0.0000   -2.7713    0.0000 C   0  0  0  0  0  0  0  0  0  0  0  0
   -3.8705    4.0756    0.0000 C   0  0  0  0  0  0  0  0  0  0  0  0
   -4.7268    1.4399    0.0000 C   0  0  0  0  0  0  0  0  0  0  0  0
    3.6161    2.0161    0.0000 C   0  0  0  0  0  0  0  0  0  0  0  0
    1.6000   -2.7713    0.0000 C   0  0  0  0  0  0  0  0  0  0  0  0
   -0.8000   -4.1569    0.0000 Cl  0  0  0  0  0  0  0  0  0  0  0  0
   -5.0595    3.0050    0.0000 N   0  0  0  0  0  0  0  0  0  0  0  0
   -6.5812    3.4994    0.0000 C   0  0  0  0  0  0  0  0  0  0  0  0
   -6.9139    5.0644    0.0000 C   0  0  0  0  0  0  0  0  0  0  0  0
   -8.4355    5.5589    0.0000 N   0  0  0  0  0  0  0  0  0  0  0  0
   -8.9300    7.0805    0.0000 C   0  0  0  0  0  0  0  0  0  0  0  0
   -9.7300    4.6184    0.0000 C   0  0  0  0  0  0  0  0  0  0  0  0
  -10.5300    7.0805    0.0000 N   0  0  0  0  0  0  0  0  0  0  0  0
   -7.9895    8.3750    0.0000 O   0  0  0  0  0  0  0  0  0  0  0  0
  -11.0244    5.5589    0.0000 C   0  0  0  0  0  0  0  0  0  0  0  0
    4.8052    0.9455    0.0000 C   0  0  0  0  0  0  0  0  0  0  0  0
    3.9488    3.5812    0.0000 C   0  0  0  0  0  0  0  0  0  0  0  0
    5.4705    4.0756    0.0000 C   0  0  0  0  0  0  0  0  0  0  0  0
    6.6595    3.0050    0.0000 C   0  0  0  0  0  0  0  0  0  0  0  0
    6.3268    1.4399    0.0000 C   0  0  0  0  0  0  0  0  0  0  0  0
    8.1812    3.4994    0.0000 C   0  0  0  0  0  0  0  0  0  0  0  0
   10.3682    7.1239    0.0000 C   0  0  0  0  0  0  0  0  0  0  0  0
   10.0355    5.5589    0.0000 O   0  0  0  0  0  0  0  0  0  0  0  0
    8.5138    5.0644    0.0000 C   0  0  0  0  0  0  0  0  0  0  0  0
    7.3248    6.1350    0.0000 O   0  0  0  0  0  0  0  0  0  0  0  0
  1  2  1  0  0  0  0
  3  1  1  1  0  0  0
  1  4  2  0  0  0  0
  2  5  2  0  0  0  0
  2  6  1  0  0  0  0
  3  7  1  0  0  0  0
  3  8  1  0  0  0  0
  4  9  1  0  0  0  0
  5  9  1  0  0  0  0
  5 10  1  0  0  0  0
  6 11  2  0  0  0  0
  7 12  1  0  0  0  0
  8 13  1  0  0  0  0
  9 14  1  0  0  0  0
 10 15  2  0  0  0  0
 11 15  1  0  0  0  0
 11 16  1  0  0  0  0
 12 17  1  0  0  0  0
 13 17  1  0  0  0  0
 14 26  1  0  0  0  0
 14 27  2  0  0  0  0
 17 18  1  6  0  0  0
 18 19  1  0  0  0  0
 19 20  1  0  0  0  0
 20 21  1  0  0  0  0
 20 22  1  0  0  0  0
 21 23  1  0  0  0  0
 21 24  2  0  0  0  0
 22 25  1  0  0  0  0
 23 25  1  0  0  0  0
 26 30  2  0  0  0  0
 27 28  1  0  0  0  0
 28 29  2  0  0  0  0
 29 30  1  0  0  0  0
 29 31  1  0  0  0  0
 31 34  1  0  0  0  0
 32 33  1  0  0  0  0
 33 34  1  0  0  0  0
 34 35  2  0  0  0  0
M  END
> <Acceptable>
false

> <IC50>
0.131

$$$$

Generated by Molecular Materials Informatics

 34 38  0  0  0  0  0  0  0  0999 V2000
   -0.4944    1.5217    0.0000 C   0  0  0  0  0  0  0  0  0  0  0  0
    0.0000    0.0000    0.0000 C   0  0  0  0  0  0  0  0  0  0  0  0
   -2.0161    2.0161    0.0000 C   0  0  0  0  0  0  0  0  0  0  0  0
    0.8000    2.4621    0.0000 C   0  0  0  0  0  0  0  0  0  0  0  0
    1.6000    0.0000    0.0000 C   0  0  0  0  0  0  0  0  0  0  0  0
   -0.8000   -1.3856    0.0000 C   0  0  0  0  0  0  0  0  0  0  0  0
   -2.3488    3.5812    0.0000 C   0  0  0  0  0  0  0  0  0  0  0  0
   -3.2052    0.9455    0.0000 C   0  0  0  0  0  0  0  0  0  0  0  0
    2.0944    1.5217    0.0000 N   0  0  0  0  0  0  0  0  0  0  0  0
    2.4000   -1.3856    0.0000 C   0  0  0  0  0  0  0  0  0  0  0  0
    0.0000   -2.7713    0.0000 C   0  0  0  0  0  0  0  0  0  0  0  0
   -3.8705    4.0756    0.0000 C   0  0  0  0  0  0  0  0  0  0  0  0
   -4.7268    1.4399    0.0000 C   0  0  0  0  0  0  0  0  0  0  0  0
    3.6161    2.0161    0.0000 C   0  0  0  0  0  0  0  0  0  0  0  0
    1.6000   -2.7713    0.0000 C   0  0  0  0  0  0  0  0  0  0  0  0
   -0.8000   -4.1569    0.0000 Cl  0  0  0  0  0  0  0  0  0  0  0  0
   -5.0595    3.0050    0.0000 N   0  0  0  0  0  0  0  0  0  0  0  0
    4.8052    0.9455    0.0000 C   0  0  0  0  0  0  0  0  0  0  0  0
    3.9488    3.5812    0.0000 C   0  0  0  0  0  0  0  0  0  0  0  0
   -6.5812    3.4994    0.0000 C   0  0  0  0  0  0  0  0  0  0  0  0
    6.3268    1.4399    0.0000 C   0  0  0  0  0  0  0  0  0  0  0  0
    5.4705    4.0756    0.0000 C   0  0  0  0  0  0  0  0  0  0  0  0
   -6.9139    5.0644    0.0000 C   0  0  0  0  0  0  0  0  0  0  0  0
    6.6595    3.0050    0.0000 C   0  0  0  0  0  0  0  0  0  0  0  0
   -8.4355    5.5589    0.0000 N   0  0  0  0  0  0  0  0  0  0  0  0
   -8.9300    7.0805    0.0000 C   0  0  0  0  0  0  0  0  0  0  0  0
   -9.7300    4.6184    0.0000 C   0  0  0  0  0  0  0  0  0  0  0  0
  -10.5300    7.0805    0.0000 N   0  0  0  0  0  0  0  0  0  0  0  0
   -7.9895    8.3750    0.0000 O   0  0  0  0  0  0  0  0  0  0  0  0
  -11.0244    5.5589    0.0000 C   0  0  0  0  0  0  0  0  0  0  0  0
   10.0355    5.5589    0.0000 C   0  0  0  0  0  0  0  0  0  0  0  0
    8.5138    5.0644    0.0000 O   0  0  0  0  0  0  0  0  0  0  0  0
    8.1812    3.4994    0.0000 C   0  0  0  0  0  0  0  0  0  0  0  0
    9.3702    2.4288    0.0000 O   0  0  0  0  0  0  0  0  0  0  0  0
  1  2  1  0  0  0  0
  3  1  1  1  0  0  0
  1  4  2  0  0  0  0
  2  5  2  0  0  0  0
  2  6  1  0  0  0  0
  3  7  1  0  0  0  0
  3  8  1  0  0  0  0
  4  9  1  0  0  0  0
  5  9  1  0  0  0  0
  5 10  1  0  0  0  0
  6 11  2  0  0  0  0
  7 12  1  0  0  0  0
  8 13  1  0  0  0  0
  9 14  1  0  0  0  0
 10 15  2  0  0  0  0
 11 15  1  0  0  0  0
 11 16  1  0  0  0  0
 12 17  1  0  0  0  0
 13 17  1  0  0  0  0
 14 18  2  0  0  0  0
 14 19  1  0  0  0  0
 17 20  1  6  0  0  0
 18 21  1  0  0  0  0
 19 22  2  0  0  0  0
 20 23  1  0  0  0  0
 21 24  2  0  0  0  0
 22 24  1  0  0  0  0
 23 25  1  0  0  0  0
 24 33  1  0  0  0  0
 25 26  1  0  0  0  0
 25 27  1  0  0  0  0
 26 28  1  0  0  0  0
 26 29  2  0  0  0  0
 27 30  1  0  0  0  0
 28 30  1  0  0  0  0
 31 32  1  0  0  0  0
 32 33  1  0  0  0  0
 33 34  2  0  0  0  0
M  END
> <Acceptable>
false

> <IC50>
0.036

$$$$

Generated by Molecular Materials Informatics

 20 22  0  0  0  0  0  0  0  0999 V2000
   -1.0530    2.3650    0.0000 C   0  0  0  0  0  0  0  0  0  0  0  0
   -1.3856    0.8000    0.0000 C   0  0  0  0  0  0  0  0  0  0  0  0
   -2.1236    3.5541    0.0000 C   0  0  0  0  0  0  0  0  0  0  0  0
    0.5383    2.5323    0.0000 C   0  0  0  0  0  0  0  0  0  0  0  0
    0.0000    0.0000    0.0000 C   0  0  0  0  0  0  0  0  0  0  0  0
   -2.7713    0.0000    0.0000 C   0  0  0  0  0  0  0  0  0  0  0  0
   -3.6886    3.2214    0.0000 C   0  0  0  0  0  0  0  0  0  0  0  0
   -1.6292    5.0758    0.0000 C   0  0  0  0  0  0  0  0  0  0  0  0
    1.1890    1.0706    0.0000 N   0  0  0  0  0  0  0  0  0  0  0  0
    0.0000   -1.6000    0.0000 C   0  0  0  0  0  0  0  0  0  0  0  0
   -2.7713   -1.6000    0.0000 C   0  0  0  0  0  0  0  0  0  0  0  0
    2.7541    0.7380    0.0000 C   0  0  0  0  0  0  0  0  0  0  0  0
   -1.3856   -2.4000    0.0000 C   0  0  0  0  0  0  0  0  0  0  0  0
   -4.1569   -2.4000    0.0000 Cl  0  0  0  0  0  0  0  0  0  0  0  0
    3.2485   -0.7837    0.0000 C   0  0  0  0  0  0  0  0  0  0  0  0
    3.8247    1.9270    0.0000 C   0  0  0  0  0  0  0  0  0  0  0  0
    4.8135   -1.1164    0.0000 C   0  0  0  0  0  0  0  0  0  0  0  0
    5.3897    1.5943    0.0000 C   0  0  0  0  0  0  0  0  0  0  0  0
    5.8841    0.0726    0.0000 C   0  0  0  0  0  0  0  0  0  0  0  0
    7.4492   -0.2600    0.0000 F   0  0  0  0  0  0  0  0  0  0  0  0
  1  2  1  0  0  0  0
  1  3  1  0  0  0  0
  1  4  2  0  0  0  0
  2  5  2  0  0  0  0
  2  6  1  0  0  0  0
  3  7  1  0  0  0  0
  3  8  1  0  0  0  0
  4  9  1  0  0  0  0
  5  9  1  0  0  0  0
  5 10  1  0  0  0  0
  6 11  2  0  0  0  0
  9 12  1  0  0  0  0
 10 13  2  0  0  0  0
 11 13  1  0  0  0  0
 11 14  1  0  0  0  0
 12 15  2  0  0  0  0
 12 16  1  0  0  0  0
 15 17  1  0  0  0  0
 16 18  2  0  0  0  0
 17 19  2  0  0  0  0
 18 19  1  0  0  0  0
 19 20  1  0  0  0  0
M  END
> <Acceptable>
false

> <IC50>
>10

$$$$

Generated by Molecular Materials Informatics

 30 34  0  0  0  0  0  0  0  0999 V2000
    0.0000    0.0000    0.0000 C   0  0  0  0  0  0  0  0  0  0  0  0
   -1.1890   -1.0706    0.0000 C   0  0  0  0  0  0  0  0  0  0  0  0
    1.5650   -0.3327    0.0000 C   0  0  0  0  0  0  0  0  0  0  0  0
   -0.6508    1.4617    0.0000 C   0  0  0  0  0  0  0  0  0  0  0  0
   -2.5747   -0.2706    0.0000 C   0  0  0  0  0  0  0  0  0  0  0  0
   -1.1890   -2.6706    0.0000 C   0  0  0  0  0  0  0  0  0  0  0  0
    2.6356    0.8564    0.0000 C   0  0  0  0  0  0  0  0  0  0  0  0
    2.0595   -1.8544    0.0000 C   0  0  0  0  0  0  0  0  0  0  0  0
   -2.2420    1.2944    0.0000 N   0  0  0  0  0  0  0  0  0  0  0  0
   -3.9603   -1.0706    0.0000 C   0  0  0  0  0  0  0  0  0  0  0  0
   -2.5747   -3.4706    0.0000 C   0  0  0  0  0  0  0  0  0  0  0  0
    4.2007    0.5237    0.0000 C   0  0  0  0  0  0  0  0  0  0  0  0
    3.6245   -2.1870    0.0000 C   0  0  0  0  0  0  0  0  0  0  0  0
   -3.3126    2.4835    0.0000 C   0  0  0  0  0  0  0  0  0  0  0  0
   -3.9603   -2.6706    0.0000 C   0  0  0  0  0  0  0  0  0  0  0  0
    4.6951   -0.9980    0.0000 N   0  0  0  0  0  0  0  0  0  0  0  0
   -4.8777    2.1508    0.0000 C   0  0  0  0  0  0  0  0  0  0  0  0
   -2.8182    4.0052    0.0000 C   0  0  0  0  0  0  0  0  0  0  0  0
    6.2601   -1.3306    0.0000 C   0  0  0  0  0  0  0  0  0  0  0  0
   -5.9483    3.3398    0.0000 C   0  0  0  0  0  0  0  0  0  0  0  0
   -3.8888    5.1942    0.0000 C   0  0  0  0  0  0  0  0  0  0  0  0
    7.3308   -0.1416    0.0000 C   0  0  0  0  0  0  0  0  0  0  0  0
   -5.4538    4.8615    0.0000 C   0  0  0  0  0  0  0  0  0  0  0  0
    8.8958   -0.4743    0.0000 N   0  0  0  0  0  0  0  0  0  0  0  0
   -6.5244    6.0506    0.0000 F   0  0  0  0  0  0  0  0  0  0  0  0
   10.0848    0.5963    0.0000 C   0  0  0  0  0  0  0  0  0  0  0  0
    9.5466   -1.9359    0.0000 C   0  0  0  0  0  0  0  0  0  0  0  0
   11.4705   -0.2037    0.0000 N   0  0  0  0  0  0  0  0  0  0  0  0
    9.9176    2.1876    0.0000 S   0  0  0  0  0  0  0  0  0  0  0  0
   11.1378   -1.7687    0.0000 C   0  0  0  0  0  0  0  0  0  0  0  0
  1  2  1  0  0  0  0
  3  1  1  6  0  0  0
  1  4  2  0  0  0  0
  2  5  2  0  0  0  0
  2  6  1  0  0  0  0
  3  7  1  0  0  0  0
  3  8  1  0  0  0  0
  4  9  1  0  0  0  0
  5  9  1  0  0  0  0
  5 10  1  0  0  0  0
  6 11  2  0  0  0  0
  7 12  1  0  0  0  0
  8 13  1  0  0  0  0
  9 14  1  0  0  0  0
 10 15  2  0  0  0  0
 11 15  1  0  0  0  0
 12 16  1  0  0  0  0
 13 16  1  0  0  0  0
 14 17  2  0  0  0  0
 14 18  1  0  0  0  0
 16 19  1  1  0  0  0
 17 20  1  0  0  0  0
 18 21  2  0  0  0  0
 19 22  1  0  0  0  0
 20 23  2  0  0  0  0
 21 23  1  0  0  0  0
 22 24  1  0  0  0  0
 23 25  1  0  0  0  0
 24 26  1  0  0  0  0
 24 27  1  0  0  0  0
 26 28  1  0  0  0  0
 26 29  2  0  0  0  0
 27 30  1  0  0  0  0
 28 30  1  0  0  0  0
M  END
> <Acceptable>
false

> <IC50>
0.0062

$$$$

Generated by Molecular Materials Informatics

 35 38  0  0  0  0  0  0  0  0999 V2000
   -1.3856   -2.4000    0.0000 C   0  0  0  0  0  0  0  0  0  0  0  0
   -1.3856   -4.0000    0.0000 C   0  0  0  0  0  0  0  0  0  0  0  0
    0.0000   -4.8000    0.0000 C   0  0  0  0  0  0  0  0  0  0  0  0
    1.3856   -4.0000    0.0000 C   0  0  0  0  0  0  0  0  0  0  0  0
    1.3856   -2.4000    0.0000 C   0  0  0  0  0  0  0  0  0  0  0  0
    0.0000   -1.6000    0.0000 C   0  0  0  0  0  0  0  0  0  0  0  0
    0.0000    0.0000    0.0000 C   0  0  0  0  0  0  0  0  0  0  0  0
   -1.6000    0.0000    0.0000 C   0  0  0  0  0  0  0  0  0  0  0  0
   -2.4000    1.3856    0.0000 C   0  0  0  0  0  0  0  0  0  0  0  0
   -4.0000    1.3856    0.0000 C   0  0  0  0  0  0  0  0  0  0  0  0
   -4.8000    0.0000    0.0000 C   0  0  0  0  0  0  0  0  0  0  0  0
   -4.0000   -1.3856    0.0000 C   0  0  0  0  0  0  0  0  0  0  0  0
   -2.4000   -1.3856    0.0000 C   0  0  0  0  0  0  0  0  0  0  0  0
    1.6000    0.0000    0.0000 C   0  0  0  0  0  0  0  0  0  0  0  0
    0.0000    1.6000    0.0000 O   0  0  0  0  0  0  0  0  0  0  0  0
    7.2000    1.3856    0.0000 C   0  0  0  0  0  0  0  0  0  0  0  0
    8.8000    1.3856    0.0000 C   0  0  0  0  0  0  0  0  0  0  0  0
    9.6000    2.7713    0.0000 C   0  0  0  0  0  0  0  0  0  0  0  0
   11.2000    2.7713    0.0000 C   0  0  0  0  0  0  0  0  0  0  0  0
   12.0000    1.3856    0.0000 C   0  0  0  0  0  0  0  0  0  0  0  0
   13.6000    1.3856    0.0000 C   0  0  0  0  0  0  0  0  0  0  0  0
   14.4000    2.7713    0.0000 C   0  0  0  0  0  0  0  0  0  0  0  0
   13.6000    4.1569    0.0000 C   0  0  0  0  0  0  0  0  0  0  0  0
   12.0000    4.1569    0.0000 C   0  0  0  0  0  0  0  0  0  0  0  0
    8.8000    4.1569    0.0000 O   0  0  0  0  0  0  0  0  0  0  0  0
   16.0000    2.7713    0.0000 C   0  0  0  0  0  0  0  0  0  0  0  0
   16.8000    1.3856    0.0000 O   0  0  0  0  0  0  0  0  0  0  0  0
   16.8000    4.1569    0.0000 C   0  0  0  0  0  0  0  0  0  0  0  0
   17.6000    2.7713    0.0000 C   0  0  0  0  0  0  0  0  0  0  0  0
    2.4000   -1.3856    0.0000 C   0  0  0  0  0  0  0  0  0  0  0  0
    4.0000   -1.3856    0.0000 C   0  0  0  0  0  0  0  0  0  0  0  0
    4.8000    0.0000    0.0000 N   0  0  0  0  0  0  0  0  0  0  0  0
    4.0000    1.3856    0.0000 C   0  0  0  0  0  0  0  0  0  0  0  0
    2.4000    1.3856    0.0000 C   0  0  0  0  0  0  0  0  0  0  0  0
    6.4000    0.0000    0.0000 C   0  0  0  0  0  0  0  0  0  0  0  0
  1  2  1  0  0  0  0
  1  6  2  0  0  0  0
  2  3  2  0  0  0  0
  3  4  1  0  0  0  0
  4  5  2  0  0  0  0
  5  6  1  0  0  0  0
  6  7  1  0  0  0  0
  7  8  1  0  0  0  0
 14  7  1  1  0  0  0
  7 15  1  0  0  0  0
  8  9  1  0  0  0  0
  8 13  2  0  0  0  0
  9 10  2  0  0  0  0
 10 11  1  0  0  0  0
 11 12  2  0  0  0  0
 12 13  1  0  0  0  0
 14 30  1  0  0  0  0
 14 34  1  0  0  0  0
 16 17  1  0  0  0  0
 16 35  1  0  0  0  0
 17 18  1  0  0  0  0
 18 19  1  0  0  0  0
 18 25  1  1  0  0  0
 19 20  1  0  0  0  0
 19 24  2  0  0  0  0
 20 21  2  0  0  0  0
 21 22  1  0  0  0  0
 22 23  2  0  0  0  0
 22 26  1  0  0  0  0
 23 24  1  0  0  0  0
 26 27  1  0  0  0  0
 26 28  1  0  0  0  0
 26 29  1  0  0  0  0
 30 31  1  0  0  0  0
 31 32  1  0  0  0  0
 32 33  1  0  0  0  0
 32 35  1  6  0  0  0
 33 34  1  0  0  0  0
M  END
> <Acceptable>
false

> <IC50>
0.46

$$$$

Generated by Molecular Materials Informatics

 20 22  0  0  0  0  0  0  0  0999 V2000
    0.2706    2.5747    0.0000 C   0  0  0  0  0  0  0  0  0  0  0  0
   -0.8000    1.3856    0.0000 C   0  0  0  0  0  0  0  0  0  0  0  0
    0.0000    0.0000    0.0000 C   0  0  0  0  0  0  0  0  0  0  0  0
    1.5650    0.3327    0.0000 N   0  0  0  0  0  0  0  0  0  0  0  0
    1.7323    1.9239    0.0000 C   0  0  0  0  0  0  0  0  0  0  0  0
   -0.8000   -1.3856    0.0000 C   0  0  0  0  0  0  0  0  0  0  0  0
   -2.4000   -1.3856    0.0000 C   0  0  0  0  0  0  0  0  0  0  0  0
   -3.2000    0.0000    0.0000 C   0  0  0  0  0  0  0  0  0  0  0  0
   -2.4000    1.3856    0.0000 C   0  0  0  0  0  0  0  0  0  0  0  0
   -4.8000    0.0000    0.0000 C   0  0  0  0  0  0  0  0  0  0  0  0
   -5.6000    1.3856    0.0000 C   0  0  0  0  0  0  0  0  0  0  0  0
   -5.6000   -1.3856    0.0000 C   0  0  0  0  0  0  0  0  0  0  0  0
   -6.4000    0.0000    0.0000 C   0  0  0  0  0  0  0  0  0  0  0  0
    2.7541   -0.7380    0.0000 C   0  0  0  0  0  0  0  0  0  0  0  0
    2.4214   -2.3030    0.0000 C   0  0  0  0  0  0  0  0  0  0  0  0
    3.6104   -3.3736    0.0000 C   0  0  0  0  0  0  0  0  0  0  0  0
    5.1321   -2.8792    0.0000 C   0  0  0  0  0  0  0  0  0  0  0  0
    5.4648   -1.3141    0.0000 C   0  0  0  0  0  0  0  0  0  0  0  0
    4.2758   -0.2435    0.0000 C   0  0  0  0  0  0  0  0  0  0  0  0
    6.3212   -3.9498    0.0000 F   0  0  0  0  0  0  0  0  0  0  0  0
  2  1  1  6  0  0  0
  1  5  2  0  0  0  0
  2  3  1  0  0  0  0
  2  9  1  0  0  0  0
  3  4  1  6  0  0  0
  3  6  1  0  0  0  0
  4  5  1  0  0  0  0
  4 14  1  0  0  0  0
  6  7  2  0  0  0  0
  7  8  1  0  0  0  0
  8  9  2  0  0  0  0
  8 10  1  0  0  0  0
 10 11  1  0  0  0  0
 10 12  1  0  0  0  0
 10 13  1  0  0  0  0
 14 15  1  0  0  0  0
 14 19  2  0  0  0  0
 15 16  2  0  0  0  0
 16 17  1  0  0  0  0
 17 18  2  0  0  0  0
 17 20  1  0  0  0  0
 18 19  1  0  0  0  0
M  END
> <Acceptable>
false

> <IC50>
>10

$$$$

Generated by Molecular Materials Informatics

 30 34  0  0  0  0  0  0  0  0999 V2000
    0.0000    0.0000    0.0000 C   0  0  0  0  0  0  0  0  0  0  0  0
   -1.1890   -1.0706    0.0000 C   0  0  0  0  0  0  0  0  0  0  0  0
    1.5650   -0.3327    0.0000 C   0  0  0  0  0  0  0  0  0  0  0  0
   -0.6508    1.4617    0.0000 C   0  0  0  0  0  0  0  0  0  0  0  0
   -2.5747   -0.2706    0.0000 C   0  0  0  0  0  0  0  0  0  0  0  0
   -1.1890   -2.6706    0.0000 C   0  0  0  0  0  0  0  0  0  0  0  0
    2.6356    0.8564    0.0000 C   0  0  0  0  0  0  0  0  0  0  0  0
    2.0595   -1.8544    0.0000 C   0  0  0  0  0  0  0  0  0  0  0  0
   -2.2420    1.2944    0.0000 N   0  0  0  0  0  0  0  0  0  0  0  0
   -3.9603   -1.0706    0.0000 C   0  0  0  0  0  0  0  0  0  0  0  0
   -2.5747   -3.4706    0.0000 C   0  0  0  0  0  0  0  0  0  0  0  0
    4.2007    0.5237    0.0000 C   0  0  0  0  0  0  0  0  0  0  0  0
    3.6245   -2.1870    0.0000 C   0  0  0  0  0  0  0  0  0  0  0  0
   -3.3126    2.4835    0.0000 C   0  0  0  0  0  0  0  0  0  0  0  0
   -3.9603   -2.6706    0.0000 C   0  0  0  0  0  0  0  0  0  0  0  0
    4.6951   -0.9980    0.0000 N   0  0  0  0  0  0  0  0  0  0  0  0
   -4.8777    2.1508    0.0000 C   0  0  0  0  0  0  0  0  0  0  0  0
   -2.8182    4.0052    0.0000 C   0  0  0  0  0  0  0  0  0  0  0  0
    6.2601   -1.3306    0.0000 C   0  0  0  0  0  0  0  0  0  0  0  0
   -5.9483    3.3398    0.0000 C   0  0  0  0  0  0  0  0  0  0  0  0
   -3.8888    5.1942    0.0000 C   0  0  0  0  0  0  0  0  0  0  0  0
    7.3308   -0.1416    0.0000 C   0  0  0  0  0  0  0  0  0  0  0  0
   -5.4538    4.8615    0.0000 C   0  0  0  0  0  0  0  0  0  0  0  0
    8.8958   -0.4743    0.0000 N   0  0  0  0  0  0  0  0  0  0  0  0
   -6.5244    6.0506    0.0000 F   0  0  0  0  0  0  0  0  0  0  0  0
   10.0848    0.5963    0.0000 C   0  0  0  0  0  0  0  0  0  0  0  0
    9.5466   -1.9359    0.0000 C   0  0  0  0  0  0  0  0  0  0  0  0
   11.4705   -0.2037    0.0000 N   0  0  0  0  0  0  0  0  0  0  0  0
    9.9176    2.1876    0.0000 O   0  0  0  0  0  0  0  0  0  0  0  0
   11.1378   -1.7687    0.0000 C   0  0  0  0  0  0  0  0  0  0  0  0
  1  2  1  1  0  0  0
  1  3  1  0  0  0  0
  1  4  1  0  0  0  0
  2  5  2  0  0  0  0
  2  6  1  0  0  0  0
  3  7  1  6  0  0  0
  3  8  1  0  0  0  0
  4  9  1  0  0  0  0
  5  9  1  0  0  0  0
  5 10  1  0  0  0  0
  6 11  2  0  0  0  0
  7 12  1  0  0  0  0
  8 13  1  0  0  0  0
  9 14  1  0  0  0  0
 10 15  2  0  0  0  0
 11 15  1  0  0  0  0
 12 16  1  0  0  0  0
 13 16  1  0  0  0  0
 14 17  2  0  0  0  0
 14 18  1  0  0  0  0
 16 19  1  1  0  0  0
 17 20  1  0  0  0  0
 18 21  2  0  0  0  0
 19 22  1  0  0  0  0
 20 23  2  0  0  0  0
 21 23  1  0  0  0  0
 22 24  1  0  0  0  0
 23 25  1  0  0  0  0
 24 26  1  0  0  0  0
 24 27  1  0  0  0  0
 26 28  1  0  0  0  0
 26 29  2  0  0  0  0
 27 30  1  0  0  0  0
 28 30  1  0  0  0  0
M  END
> <Acceptable>
false

> <IC50>
0.0235

$$$$

Generated by Molecular Materials Informatics

 23 26  0  0  0  0  0  0  0  0999 V2000
   -0.4944    1.5217    0.0000 C   0  0  0  0  0  0  0  0  0  0  0  0
    0.0000    0.0000    0.0000 C   0  0  0  0  0  0  0  0  0  0  0  0
   -2.0161    2.0161    0.0000 C   0  0  0  0  0  0  0  0  0  0  0  0
    0.8000    2.4621    0.0000 C   0  0  0  0  0  0  0  0  0  0  0  0
    1.6000    0.0000    0.0000 C   0  0  0  0  0  0  0  0  0  0  0  0
   -0.8000   -1.3856    0.0000 C   0  0  0  0  0  0  0  0  0  0  0  0
   -2.3488    3.5812    0.0000 C   0  0  0  0  0  0  0  0  0  0  0  0
   -3.2052    0.9455    0.0000 C   0  0  0  0  0  0  0  0  0  0  0  0
    2.0944    1.5217    0.0000 N   0  0  0  0  0  0  0  0  0  0  0  0
    2.4000   -1.3856    0.0000 C   0  0  0  0  0  0  0  0  0  0  0  0
    0.0000   -2.7713    0.0000 C   0  0  0  0  0  0  0  0  0  0  0  0
   -3.8705    4.0756    0.0000 C   0  0  0  0  0  0  0  0  0  0  0  0
   -4.7268    1.4399    0.0000 C   0  0  0  0  0  0  0  0  0  0  0  0
    3.6161    2.0161    0.0000 C   0  0  0  0  0  0  0  0  0  0  0  0
    1.6000   -2.7713    0.0000 C   0  0  0  0  0  0  0  0  0  0  0  0
   -0.8000   -4.1569    0.0000 Cl  0  0  0  0  0  0  0  0  0  0  0  0
   -5.0595    3.0050    0.0000 N   0  0  0  0  0  0  0  0  0  0  0  0
    4.8052    0.9455    0.0000 C   0  0  0  0  0  0  0  0  0  0  0  0
    3.9488    3.5812    0.0000 C   0  0  0  0  0  0  0  0  0  0  0  0
    6.3268    1.4399    0.0000 C   0  0  0  0  0  0  0  0  0  0  0  0
    5.4705    4.0756    0.0000 C   0  0  0  0  0  0  0  0  0  0  0  0
    6.6595    3.0050    0.0000 C   0  0  0  0  0  0  0  0  0  0  0  0
    8.1812    3.4994    0.0000 F   0  0  0  0  0  0  0  0  0  0  0  0
  1  2  1  0  0  0  0
  1  3  1  0  0  0  0
  1  4  2  0  0  0  0
  2  5  2  0  0  0  0
  2  6  1  0  0  0  0
  3  7  1  0  0  0  0
  3  8  1  0  0  0  0
  4  9  1  0  0  0  0
  5  9  1  0  0  0  0
  5 10  1  0  0  0  0
  6 11  2  0  0  0  0
  7 12  1  0  0  0  0
  8 13  1  0  0  0  0
  9 14  1  0  0  0  0
 10 15  2  0  0  0  0
 11 15  1  0  0  0  0
 11 16  1  0  0  0  0
 12 17  1  0  0  0  0
 13 17  1  0  0  0  0
 14 18  2  0  0  0  0
 14 19  1  0  0  0  0
 18 20  1  0  0  0  0
 19 21  2  0  0  0  0
 20 22  2  0  0  0  0
 21 22  1  0  0  0  0
 22 23  1  0  0  0  0
M  END
> <Acceptable>
false

> <IC50>
0.204

$$$$

Generated by Molecular Materials Informatics

 21 23  0  0  0  0  0  0  0  0999 V2000
   -1.2944    2.2420    0.0000 C   0  0  0  0  0  0  0  0  0  0  0  0
   -2.3650    1.0530    0.0000 C   0  0  0  0  0  0  0  0  0  0  0  0
    0.1672    1.5912    0.0000 C   0  0  0  0  0  0  0  0  0  0  0  0
   -1.5650   -0.3327    0.0000 C   0  0  0  0  0  0  0  0  0  0  0  0
   -3.9650    1.0530    0.0000 C   0  0  0  0  0  0  0  0  0  0  0  0
    0.0000    0.0000    0.0000 N   0  0  0  0  0  0  0  0  0  0  0  0
   -2.3650   -1.7183    0.0000 C   0  0  0  0  0  0  0  0  0  0  0  0
   -4.7650   -0.3327    0.0000 C   0  0  0  0  0  0  0  0  0  0  0  0
    1.1890   -1.0706    0.0000 C   0  0  0  0  0  0  0  0  0  0  0  0
   -3.9650   -1.7183    0.0000 C   0  0  0  0  0  0  0  0  0  0  0  0
   -6.3650   -0.3327    0.0000 Cl  0  0  0  0  0  0  0  0  0  0  0  0
    0.8564   -2.6356    0.0000 C   0  0  0  0  0  0  0  0  0  0  0  0
    2.7107   -0.5762    0.0000 C   0  0  0  0  0  0  0  0  0  0  0  0
    2.0454   -3.7063    0.0000 C   0  0  0  0  0  0  0  0  0  0  0  0
    3.8998   -1.6468    0.0000 C   0  0  0  0  0  0  0  0  0  0  0  0
    3.5671   -3.2118    0.0000 C   0  0  0  0  0  0  0  0  0  0  0  0
    4.7561   -4.2824    0.0000 F   0  0  0  0  0  0  0  0  0  0  0  0
    1.5529    2.3912    0.0000 C   0  0  0  0  0  0  0  0  0  0  0  0
    1.5529    3.9912    0.0000 N   0  0  0  0  0  0  0  0  0  0  0  0
    0.1672    4.7912    0.0000 C   0  0  0  0  0  0  0  0  0  0  0  0
    2.9385    4.7912    0.0000 C   0  0  0  0  0  0  0  0  0  0  0  0
  1  2  1  0  0  0  0
  1  3  2  0  0  0  0
  2  4  2  0  0  0  0
  2  5  1  0  0  0  0
  3  6  1  0  0  0  0
  3 18  1  0  0  0  0
  4  6  1  0  0  0  0
  4  7  1  0  0  0  0
  5  8  2  0  0  0  0
  6  9  1  0  0  0  0
  7 10  2  0  0  0  0
  8 10  1  0  0  0  0
  8 11  1  0  0  0  0
  9 12  2  0  0  0  0
  9 13  1  0  0  0  0
 12 14  1  0  0  0  0
 13 15  2  0  0  0  0
 14 16  2  0  0  0  0
 15 16  1  0  0  0  0
 16 17  1  0  0  0  0
 18 19  1  0  0  0  0
 19 20  1  0  0  0  0
 19 21  1  0  0  0  0
M  END
> <Acceptable>
false

> <IC50>
26

$$$$

Generated by Molecular Materials Informatics

 22 24  0  0  0  0  0  0  0  0999 V2000
    0.4944    1.5217    0.0000 C   0  0  0  0  0  0  0  0  0  0  0  0
    0.0000    0.0000    0.0000 C   0  0  0  0  0  0  0  0  0  0  0  0
    2.0161    2.0161    0.0000 C   0  0  0  0  0  0  0  0  0  0  0  0
   -0.8000    2.4621    0.0000 C   0  0  0  0  0  0  0  0  0  0  0  0
   -1.6000    0.0000    0.0000 C   0  0  0  0  0  0  0  0  0  0  0  0
    0.8000   -1.3856    0.0000 C   0  0  0  0  0  0  0  0  0  0  0  0
    3.2052    0.9455    0.0000 C   0  0  0  0  0  0  0  0  0  0  0  0
   -2.0944    1.5217    0.0000 N   0  0  0  0  0  0  0  0  0  0  0  0
   -2.4000   -1.3856    0.0000 C   0  0  0  0  0  0  0  0  0  0  0  0
    0.0000   -2.7713    0.0000 C   0  0  0  0  0  0  0  0  0  0  0  0
   -3.6161    2.0161    0.0000 C   0  0  0  0  0  0  0  0  0  0  0  0
   -1.6000   -2.7713    0.0000 C   0  0  0  0  0  0  0  0  0  0  0  0
    0.8000   -4.1569    0.0000 Cl  0  0  0  0  0  0  0  0  0  0  0  0
   -4.8052    0.9455    0.0000 C   0  0  0  0  0  0  0  0  0  0  0  0
   -3.9488    3.5812    0.0000 C   0  0  0  0  0  0  0  0  0  0  0  0
   -6.3268    1.4399    0.0000 C   0  0  0  0  0  0  0  0  0  0  0  0
   -5.4705    4.0756    0.0000 C   0  0  0  0  0  0  0  0  0  0  0  0
   -6.6595    3.0050    0.0000 C   0  0  0  0  0  0  0  0  0  0  0  0
   -8.1812    3.4994    0.0000 F   0  0  0  0  0  0  0  0  0  0  0  0
    2.3488    3.5812    0.0000 C   0  0  0  0  0  0  0  0  0  0  0  0
    4.7268    1.4399    0.0000 C   0  0  0  0  0  0  0  0  0  0  0  0
    3.8705    4.0756    0.0000 C   0  0  0  0  0  0  0  0  0  0  0  0
  1  2  1  0  0  0  0
  1  3  1  0  0  0  0
  1  4  2  0  0  0  0
  2  5  2  0  0  0  0
  2  6  1  0  0  0  0
  3  7  1  0  0  0  0
  3 20  1  0  0  0  0
  4  8  1  0  0  0  0
  5  8  1  0  0  0  0
  5  9  1  0  0  0  0
  6 10  2  0  0  0  0
  7 21  1  0  0  0  0
  8 11  1  0  0  0  0
  9 12  2  0  0  0  0
 10 12  1  0  0  0  0
 10 13  1  0  0  0  0
 11 14  2  0  0  0  0
 11 15  1  0  0  0  0
 14 16  1  0  0  0  0
 15 17  2  0  0  0  0
 16 18  2  0  0  0  0
 17 18  1  0  0  0  0
 18 19  1  0  0  0  0
 20 22  1  0  0  0  0
M  END
> <Acceptable>
false

> <IC50>
1.48

$$$$

Generated by Molecular Materials Informatics

 20 22  0  0  0  0  0  0  0  0999 V2000
    1.0530    2.3650    0.0000 C   0  0  0  0  0  0  0  0  0  0  0  0
    1.3856    0.8000    0.0000 C   0  0  0  0  0  0  0  0  0  0  0  0
    2.1236    3.5541    0.0000 C   0  0  0  0  0  0  0  0  0  0  0  0
   -0.5383    2.5323    0.0000 C   0  0  0  0  0  0  0  0  0  0  0  0
    0.0000    0.0000    0.0000 C   0  0  0  0  0  0  0  0  0  0  0  0
    2.7713    0.0000    0.0000 C   0  0  0  0  0  0  0  0  0  0  0  0
    3.6886    3.2214    0.0000 C   0  0  0  0  0  0  0  0  0  0  0  0
   -1.1890    1.0706    0.0000 N   0  0  0  0  0  0  0  0  0  0  0  0
    0.0000   -1.6000    0.0000 C   0  0  0  0  0  0  0  0  0  0  0  0
    2.7713   -1.6000    0.0000 C   0  0  0  0  0  0  0  0  0  0  0  0
   -2.7541    0.7380    0.0000 C   0  0  0  0  0  0  0  0  0  0  0  0
    1.3856   -2.4000    0.0000 C   0  0  0  0  0  0  0  0  0  0  0  0
    4.1569   -2.4000    0.0000 Cl  0  0  0  0  0  0  0  0  0  0  0  0
   -3.2485   -0.7837    0.0000 C   0  0  0  0  0  0  0  0  0  0  0  0
   -3.8247    1.9270    0.0000 C   0  0  0  0  0  0  0  0  0  0  0  0
   -4.8135   -1.1164    0.0000 C   0  0  0  0  0  0  0  0  0  0  0  0
   -5.3897    1.5943    0.0000 C   0  0  0  0  0  0  0  0  0  0  0  0
   -5.8841    0.0726    0.0000 C   0  0  0  0  0  0  0  0  0  0  0  0
   -7.4492   -0.2600    0.0000 F   0  0  0  0  0  0  0  0  0  0  0  0
    1.6292    5.0758    0.0000 O   0  0  0  0  0  0  0  0  0  0  0  0
  1  2  1  0  0  0  0
  1  3  1  0  0  0  0
  1  4  2  0  0  0  0
  2  5  2  0  0  0  0
  2  6  1  0  0  0  0
  3  7  1  1  0  0  0
  3 20  1  0  0  0  0
  4  8  1  0  0  0  0
  5  8  1  0  0  0  0
  5  9  1  0  0  0  0
  6 10  2  0  0  0  0
  8 11  1  0  0  0  0
  9 12  2  0  0  0  0
 10 12  1  0  0  0  0
 10 13  1  0  0  0  0
 11 14  2  0  0  0  0
 11 15  1  0  0  0  0
 14 16  1  0  0  0  0
 15 17  2  0  0  0  0
 16 18  2  0  0  0  0
 17 18  1  0  0  0  0
 18 19  1  0  0  0  0
M  END
> <Acceptable>
false

> <IC50>
4.55

$$$$

Generated by Molecular Materials Informatics

 21 23  0  0  0  0  0  0  0  0999 V2000
    0.4944    1.5217    0.0000 C   0  0  0  0  0  0  0  0  0  0  0  0
    0.0000    0.0000    0.0000 C   0  0  0  0  0  0  0  0  0  0  0  0
    2.0161    2.0161    0.0000 C   0  0  0  0  0  0  0  0  0  0  0  0
   -0.8000    2.4621    0.0000 C   0  0  0  0  0  0  0  0  0  0  0  0
   -1.6000    0.0000    0.0000 C   0  0  0  0  0  0  0  0  0  0  0  0
    0.8000   -1.3856    0.0000 C   0  0  0  0  0  0  0  0  0  0  0  0
    2.3488    3.5812    0.0000 C   0  0  0  0  0  0  0  0  0  0  0  0
   -2.0944    1.5217    0.0000 N   0  0  0  0  0  0  0  0  0  0  0  0
   -2.4000   -1.3856    0.0000 C   0  0  0  0  0  0  0  0  0  0  0  0
    0.0000   -2.7713    0.0000 C   0  0  0  0  0  0  0  0  0  0  0  0
   -3.6161    2.0161    0.0000 C   0  0  0  0  0  0  0  0  0  0  0  0
   -1.6000   -2.7713    0.0000 C   0  0  0  0  0  0  0  0  0  0  0  0
    0.8000   -4.1569    0.0000 Cl  0  0  0  0  0  0  0  0  0  0  0  0
   -4.8052    0.9455    0.0000 C   0  0  0  0  0  0  0  0  0  0  0  0
   -3.9488    3.5812    0.0000 C   0  0  0  0  0  0  0  0  0  0  0  0
   -6.3268    1.4399    0.0000 C   0  0  0  0  0  0  0  0  0  0  0  0
   -5.4705    4.0756    0.0000 C   0  0  0  0  0  0  0  0  0  0  0  0
   -6.6595    3.0050    0.0000 C   0  0  0  0  0  0  0  0  0  0  0  0
   -8.1812    3.4994    0.0000 F   0  0  0  0  0  0  0  0  0  0  0  0
    3.2052    0.9455    0.0000 O   0  0  0  0  0  0  0  0  0  0  0  0
    3.8705    4.0756    0.0000 C   0  0  0  0  0  0  0  0  0  0  0  0
  1  2  1  0  0  0  0
  1  3  1  0  0  0  0
  1  4  2  0  0  0  0
  2  5  2  0  0  0  0
  2  6  1  0  0  0  0
  3  7  1  0  0  0  0
  3 20  2  0  0  0  0
  4  8  1  0  0  0  0
  5  8  1  0  0  0  0
  5  9  1  0  0  0  0
  6 10  2  0  0  0  0
  7 21  1  0  0  0  0
  8 11  1  0  0  0  0
  9 12  2  0  0  0  0
 10 12  1  0  0  0  0
 10 13  1  0  0  0  0
 11 14  2  0  0  0  0
 11 15  1  0  0  0  0
 14 16  1  0  0  0  0
 15 17  2  0  0  0  0
 16 18  2  0  0  0  0
 17 18  1  0  0  0  0
 18 19  1  0  0  0  0
M  END
> <Acceptable>
false

> <IC50>
1.947

$$$$

Generated by Molecular Materials Informatics

 23 25  0  0  0  0  0  0  0  0999 V2000
    0.0000    0.0000    0.0000 C   0  0  0  0  0  0  0  0  0  0  0  0
    0.3327   -1.5650    0.0000 C   0  0  0  0  0  0  0  0  0  0  0  0
    1.0706    1.1890    0.0000 C   0  0  0  0  0  0  0  0  0  0  0  0
   -1.5912    0.1672    0.0000 C   0  0  0  0  0  0  0  0  0  0  0  0
   -1.0530   -2.3650    0.0000 C   0  0  0  0  0  0  0  0  0  0  0  0
    1.7183   -2.3650    0.0000 C   0  0  0  0  0  0  0  0  0  0  0  0
   -2.2420   -1.2944    0.0000 N   0  0  0  0  0  0  0  0  0  0  0  0
   -1.0530   -3.9650    0.0000 C   0  0  0  0  0  0  0  0  0  0  0  0
    1.7183   -3.9650    0.0000 C   0  0  0  0  0  0  0  0  0  0  0  0
   -3.8071   -1.6271    0.0000 C   0  0  0  0  0  0  0  0  0  0  0  0
    0.3327   -4.7650    0.0000 C   0  0  0  0  0  0  0  0  0  0  0  0
    3.1039   -4.7650    0.0000 Cl  0  0  0  0  0  0  0  0  0  0  0  0
   -4.3015   -3.1488    0.0000 C   0  0  0  0  0  0  0  0  0  0  0  0
   -4.8777   -0.4381    0.0000 C   0  0  0  0  0  0  0  0  0  0  0  0
   -5.8665   -3.4814    0.0000 C   0  0  0  0  0  0  0  0  0  0  0  0
   -6.4427   -0.7707    0.0000 C   0  0  0  0  0  0  0  0  0  0  0  0
   -6.9371   -2.2924    0.0000 C   0  0  0  0  0  0  0  0  0  0  0  0
   -8.5022   -2.6251    0.0000 F   0  0  0  0  0  0  0  0  0  0  0  0
    0.5762    2.7107    0.0000 C   0  0  0  0  0  0  0  0  0  0  0  0
    2.1412    2.3781    0.0000 C   0  0  0  0  0  0  0  0  0  0  0  0
    1.6468    3.8998    0.0000 C   0  0  0  0  0  0  0  0  0  0  0  0
   -0.9889    3.0434    0.0000 C   0  0  0  0  0  0  0  0  0  0  0  0
    2.6356    0.8564    0.0000 O   0  0  0  0  0  0  0  0  0  0  0  0
  1  2  1  0  0  0  0
  1  3  1  0  0  0  0
  1  4  2  0  0  0  0
  2  5  2  0  0  0  0
  2  6  1  0  0  0  0
  3 19  1  0  0  0  0
  3 20  1  0  0  0  0
  3 23  1  0  0  0  0
  4  7  1  0  0  0  0
  5  7  1  0  0  0  0
  5  8  1  0  0  0  0
  6  9  2  0  0  0  0
  7 10  1  0  0  0  0
  8 11  2  0  0  0  0
  9 11  1  0  0  0  0
  9 12  1  0  0  0  0
 10 13  2  0  0  0  0
 10 14  1  0  0  0  0
 13 15  1  0  0  0  0
 14 16  2  0  0  0  0
 15 17  2  0  0  0  0
 16 17  1  0  0  0  0
 17 18  1  0  0  0  0
 19 22  1  0  0  0  0
 20 21  1  0  0  0  0
M  END
> <Acceptable>
false

> <IC50>
15.7

$$$$

Generated by Molecular Materials Informatics

 21 23  0  0  0  0  0  0  0  0999 V2000
    0.4944    1.5217    0.0000 C   0  0  0  0  0  0  0  0  0  0  0  0
    0.0000    0.0000    0.0000 C   0  0  0  0  0  0  0  0  0  0  0  0
    2.0161    2.0161    0.0000 C   0  0  0  0  0  0  0  0  0  0  0  0
   -0.8000    2.4621    0.0000 C   0  0  0  0  0  0  0  0  0  0  0  0
   -1.6000    0.0000    0.0000 C   0  0  0  0  0  0  0  0  0  0  0  0
    0.8000   -1.3856    0.0000 C   0  0  0  0  0  0  0  0  0  0  0  0
    2.3488    3.5812    0.0000 C   0  0  0  0  0  0  0  0  0  0  0  0
   -2.0944    1.5217    0.0000 N   0  0  0  0  0  0  0  0  0  0  0  0
   -2.4000   -1.3856    0.0000 C   0  0  0  0  0  0  0  0  0  0  0  0
    0.0000   -2.7713    0.0000 C   0  0  0  0  0  0  0  0  0  0  0  0
   -3.6161    2.0161    0.0000 C   0  0  0  0  0  0  0  0  0  0  0  0
   -1.6000   -2.7713    0.0000 C   0  0  0  0  0  0  0  0  0  0  0  0
    0.8000   -4.1569    0.0000 Cl  0  0  0  0  0  0  0  0  0  0  0  0
   -4.8052    0.9455    0.0000 C   0  0  0  0  0  0  0  0  0  0  0  0
   -3.9488    3.5812    0.0000 C   0  0  0  0  0  0  0  0  0  0  0  0
   -6.3268    1.4399    0.0000 C   0  0  0  0  0  0  0  0  0  0  0  0
   -5.4705    4.0756    0.0000 C   0  0  0  0  0  0  0  0  0  0  0  0
   -6.6595    3.0050    0.0000 C   0  0  0  0  0  0  0  0  0  0  0  0
   -8.1812    3.4994    0.0000 F   0  0  0  0  0  0  0  0  0  0  0  0
    3.8705    4.0756    0.0000 C   0  0  0  0  0  0  0  0  0  0  0  0
    3.2052    0.9455    0.0000 O   0  0  0  0  0  0  0  0  0  0  0  0
  1  2  1  0  0  0  0
  1  3  1  0  0  0  0
  1  4  2  0  0  0  0
  2  5  2  0  0  0  0
  2  6  1  0  0  0  0
  3  7  1  0  0  0  0
  3 21  1  6  0  0  0
  4  8  1  0  0  0  0
  5  8  1  0  0  0  0
  5  9  1  0  0  0  0
  6 10  2  0  0  0  0
  7 20  1  0  0  0  0
  8 11  1  0  0  0  0
  9 12  2  0  0  0  0
 10 12  1  0  0  0  0
 10 13  1  0  0  0  0
 11 14  2  0  0  0  0
 11 15  1  0  0  0  0
 14 16  1  0  0  0  0
 15 17  2  0  0  0  0
 16 18  2  0  0  0  0
 17 18  1  0  0  0  0
 18 19  1  0  0  0  0
M  END
> <Acceptable>
false

> <IC50>
2.2

$$$$

Generated by Molecular Materials Informatics

 19 21  0  0  0  0  0  0  0  0999 V2000
    1.0530    2.3650    0.0000 C   0  0  0  0  0  0  0  0  0  0  0  0
    1.3856    0.8000    0.0000 C   0  0  0  0  0  0  0  0  0  0  0  0
    2.1236    3.5541    0.0000 C   0  0  0  0  0  0  0  0  0  0  0  0
   -0.5383    2.5323    0.0000 C   0  0  0  0  0  0  0  0  0  0  0  0
    0.0000    0.0000    0.0000 C   0  0  0  0  0  0  0  0  0  0  0  0
    2.7713    0.0000    0.0000 C   0  0  0  0  0  0  0  0  0  0  0  0
   -1.1890    1.0706    0.0000 N   0  0  0  0  0  0  0  0  0  0  0  0
    0.0000   -1.6000    0.0000 C   0  0  0  0  0  0  0  0  0  0  0  0
    2.7713   -1.6000    0.0000 C   0  0  0  0  0  0  0  0  0  0  0  0
   -2.7541    0.7380    0.0000 C   0  0  0  0  0  0  0  0  0  0  0  0
    1.3856   -2.4000    0.0000 C   0  0  0  0  0  0  0  0  0  0  0  0
    4.1569   -2.4000    0.0000 Cl  0  0  0  0  0  0  0  0  0  0  0  0
   -3.2485   -0.7837    0.0000 C   0  0  0  0  0  0  0  0  0  0  0  0
   -3.8247    1.9270    0.0000 C   0  0  0  0  0  0  0  0  0  0  0  0
   -4.8135   -1.1164    0.0000 C   0  0  0  0  0  0  0  0  0  0  0  0
   -5.3897    1.5943    0.0000 C   0  0  0  0  0  0  0  0  0  0  0  0
   -5.8841    0.0726    0.0000 C   0  0  0  0  0  0  0  0  0  0  0  0
   -7.4492   -0.2600    0.0000 F   0  0  0  0  0  0  0  0  0  0  0  0
    1.6292    5.0758    0.0000 C   0  0  0  0  0  0  0  0  0  0  0  0
  1  2  1  0  0  0  0
  1  3  1  0  0  0  0
  1  4  2  0  0  0  0
  2  5  2  0  0  0  0
  2  6  1  0  0  0  0
  3 19  1  0  0  0  0
  4  7  1  0  0  0  0
  5  7  1  0  0  0  0
  5  8  1  0  0  0  0
  6  9  2  0  0  0  0
  7 10  1  0  0  0  0
  8 11  2  0  0  0  0
  9 11  1  0  0  0  0
  9 12  1  0  0  0  0
 10 13  2  0  0  0  0
 10 14  1  0  0  0  0
 13 15  1  0  0  0  0
 14 16  2  0  0  0  0
 15 17  2  0  0  0  0
 16 17  1  0  0  0  0
 17 18  1  0  0  0  0
M  END
> <Acceptable>
false

> <IC50>
3.5

$$$$

Generated by Molecular Materials Informatics

 20 22  0  0  0  0  0  0  0  0999 V2000
    1.0530    2.3650    0.0000 C   0  0  0  0  0  0  0  0  0  0  0  0
    1.3856    0.8000    0.0000 C   0  0  0  0  0  0  0  0  0  0  0  0
    2.1236    3.5541    0.0000 C   0  0  0  0  0  0  0  0  0  0  0  0
   -0.5383    2.5323    0.0000 C   0  0  0  0  0  0  0  0  0  0  0  0
    0.0000    0.0000    0.0000 C   0  0  0  0  0  0  0  0  0  0  0  0
    2.7713    0.0000    0.0000 C   0  0  0  0  0  0  0  0  0  0  0  0
   -1.1890    1.0706    0.0000 N   0  0  0  0  0  0  0  0  0  0  0  0
    0.0000   -1.6000    0.0000 C   0  0  0  0  0  0  0  0  0  0  0  0
    2.7713   -1.6000    0.0000 C   0  0  0  0  0  0  0  0  0  0  0  0
   -2.7541    0.7380    0.0000 C   0  0  0  0  0  0  0  0  0  0  0  0
    1.3856   -2.4000    0.0000 C   0  0  0  0  0  0  0  0  0  0  0  0
    4.1569   -2.4000    0.0000 Cl  0  0  0  0  0  0  0  0  0  0  0  0
   -3.2485   -0.7837    0.0000 C   0  0  0  0  0  0  0  0  0  0  0  0
   -3.8247    1.9270    0.0000 C   0  0  0  0  0  0  0  0  0  0  0  0
   -4.8135   -1.1164    0.0000 C   0  0  0  0  0  0  0  0  0  0  0  0
   -5.3897    1.5943    0.0000 C   0  0  0  0  0  0  0  0  0  0  0  0
   -5.8841    0.0726    0.0000 C   0  0  0  0  0  0  0  0  0  0  0  0
   -7.4492   -0.2600    0.0000 F   0  0  0  0  0  0  0  0  0  0  0  0
    3.6886    3.2214    0.0000 C   0  0  0  0  0  0  0  0  0  0  0  0
    1.6292    5.0758    0.0000 O   0  0  0  0  0  0  0  0  0  0  0  0
  1  2  1  0  0  0  0
  1  3  1  0  0  0  0
  1  4  2  0  0  0  0
  2  5  2  0  0  0  0
  2  6  1  0  0  0  0
  3 19  1  0  0  0  0
  3 20  2  0  0  0  0
  4  7  1  0  0  0  0
  5  7  1  0  0  0  0
  5  8  1  0  0  0  0
  6  9  2  0  0  0  0
  7 10  1  0  0  0  0
  8 11  2  0  0  0  0
  9 11  1  0  0  0  0
  9 12  1  0  0  0  0
 10 13  2  0  0  0  0
 10 14  1  0  0  0  0
 13 15  1  0  0  0  0
 14 16  2  0  0  0  0
 15 17  2  0  0  0  0
 16 17  1  0  0  0  0
 17 18  1  0  0  0  0
M  END
> <Acceptable>
false

> <IC50>
>10

$$$$

Generated by Molecular Materials Informatics

 39 41  0  0  0  0  0  0  0  0999 V2000
   -4.0000    6.9282    0.0000 O   0  0  0  0  0  0  0  0  0  0  0  0
   -2.4000    6.9282    0.0000 N   0  3  0  0  0  0  0  0  0  0  0  0
   -1.6000    8.3138    0.0000 O   0  5  0  0  0  0  0  0  0  0  0  0
   -1.6000    5.5426    0.0000 C   0  0  0  0  0  0  0  0  0  0  0  0
    0.0000    5.5426    0.0000 C   0  0  0  0  0  0  0  0  0  0  0  0
    0.8000    4.1569    0.0000 C   0  0  0  0  0  0  0  0  0  0  0  0
    0.0000    2.7713    0.0000 C   0  0  0  0  0  0  0  0  0  0  0  0
   -1.6000    2.7713    0.0000 C   0  0  0  0  0  0  0  0  0  0  0  0
   -2.4000    4.1569    0.0000 C   0  0  0  0  0  0  0  0  0  0  0  0
    0.8000    1.3856    0.0000 C   0  0  0  0  0  0  0  0  0  0  0  0
    2.4000    1.3856    0.0000 O   0  0  0  0  0  0  0  0  0  0  0  0
    0.0000    0.0000    0.0000 N   0  0  0  0  0  0  0  0  0  0  0  0
   -1.6000    0.0000    0.0000 C   0  0  0  0  0  0  0  0  0  0  0  0
   -2.4000    1.3856    0.0000 C   0  0  0  0  0  0  0  0  0  0  0  0
   -4.0000    1.3856    0.0000 C   0  0  0  0  0  0  0  0  0  0  0  0
   -4.8000    0.0000    0.0000 N   0  0  0  0  0  0  0  0  0  0  0  0
   -4.0000   -1.3856    0.0000 C   0  0  0  0  0  0  0  0  0  0  0  0
   -6.4000    0.0000    0.0000 C   0  0  0  0  0  0  0  0  0  0  0  0
   -7.2000   -1.3856    0.0000 C   0  0  0  0  0  0  0  0  0  0  0  0
   -8.8000   -1.3856    0.0000 C   0  0  0  0  0  0  0  0  0  0  0  0
   -9.6000   -2.7713    0.0000 C   0  0  0  0  0  0  0  0  0  0  0  0
  -11.2000   -2.7713    0.0000 C   0  0  0  0  0  0  0  0  0  0  0  0
  -12.0000   -1.3856    0.0000 C   0  0  0  0  0  0  0  0  0  0  0  0
  -13.6000   -1.3856    0.0000 O   0  0  0  0  0  0  0  0  0  0  0  0
  -14.4000   -2.7713    0.0000 C   0  0  0  0  0  0  0  0  0  0  0  0
  -11.2000    0.0000    0.0000 C   0  0  0  0  0  0  0  0  0  0  0  0
  -12.0000    1.3856    0.0000 O   0  0  0  0  0  0  0  0  0  0  0  0
  -13.6000    1.3856    0.0000 C   0  0  0  0  0  0  0  0  0  0  0  0
   -9.6000    0.0000    0.0000 C   0  0  0  0  0  0  0  0  0  0  0  0
    0.8000   -1.3856    0.0000 C   0  0  0  0  0  0  0  0  0  0  0  0
    2.4000   -1.3856    0.0000 C   0  0  0  0  0  0  0  0  0  0  0  0
    3.2000   -2.7713    0.0000 C   0  0  0  0  0  0  0  0  0  0  0  0
    2.4000   -4.1569    0.0000 C   0  0  0  0  0  0  0  0  0  0  0  0
    3.2000   -5.5426    0.0000 O   0  0  0  0  0  0  0  0  0  0  0  0
    4.8000   -5.5426    0.0000 C   0  0  0  0  0  0  0  0  0  0  0  0
    0.8000   -4.1569    0.0000 C   0  0  0  0  0  0  0  0  0  0  0  0
    0.0000   -5.5426    0.0000 O   0  0  0  0  0  0  0  0  0  0  0  0
   -1.6000   -5.5426    0.0000 C   0  0  0  0  0  0  0  0  0  0  0  0
    0.0000   -2.7713    0.0000 C   0  0  0  0  0  0  0  0  0  0  0  0
  1  2  2  0  0  0  0
  2  3  1  0  0  0  0
  2  4  1  0  0  0  0
  4  5  1  0  0  0  0
  4  9  2  0  0  0  0
  5  6  2  0  0  0  0
  6  7  1  0  0  0  0
  7  8  2  0  0  0  0
  7 10  1  0  0  0  0
  8  9  1  0  0  0  0
 10 11  2  0  0  0  0
 10 12  1  0  0  0  0
 12 13  1  0  0  0  0
 12 30  1  0  0  0  0
 13 14  1  0  0  0  0
 14 15  1  0  0  0  0
 15 16  1  0  0  0  0
 16 17  1  6  0  0  0
 16 18  1  0  0  0  0
 18 19  1  0  0  0  0
 19 20  1  0  0  0  0
 20 21  1  0  0  0  0
 20 29  2  0  0  0  0
 21 22  2  0  0  0  0
 22 23  1  0  0  0  0
 23 24  1  0  0  0  0
 23 26  2  0  0  0  0
 24 25  1  0  0  0  0
 26 27  1  0  0  0  0
 26 29  1  0  0  0  0
 27 28  1  0  0  0  0
 30 31  1  0  0  0  0
 30 39  2  0  0  0  0
 31 32  2  0  0  0  0
 32 33  1  0  0  0  0
 33 34  1  0  0  0  0
 33 36  2  0  0  0  0
 34 35  1  0  0  0  0
 36 37  1  0  0  0  0
 36 39  1  0  0  0  0
 37 38  1  0  0  0  0
M  CHG  2   2   1   3  -1
M  END
> <Acceptable>
false

> <IC50>
0.0198

$$$$

Generated by Molecular Materials Informatics

 19 20  0  0  0  0  0  0  0  0999 V2000
   -5.5426    3.2000    0.0000 Br  0  0  0  0  0  0  0  0  0  0  0  0
   -4.1569    2.4000    0.0000 C   0  0  0  0  0  0  0  0  0  0  0  0
   -4.1569    0.8000    0.0000 C   0  0  0  0  0  0  0  0  0  0  0  0
   -2.7713    0.0000    0.0000 C   0  0  0  0  0  0  0  0  0  0  0  0
   -1.3856    0.8000    0.0000 C   0  0  0  0  0  0  0  0  0  0  0  0
   -1.3856    2.4000    0.0000 C   0  0  0  0  0  0  0  0  0  0  0  0
   -2.7713    3.2000    0.0000 C   0  0  0  0  0  0  0  0  0  0  0  0
    0.0000    0.0000    0.0000 C   0  0  0  0  0  0  0  0  0  0  0  0
    1.3856    0.8000    0.0000 C   0  0  0  0  0  0  0  0  0  0  0  0
    2.7713    0.0000    0.0000 C   0  0  0  0  0  0  0  0  0  0  0  0
    4.1569    0.8000    0.0000 N   0  0  0  0  0  0  0  0  0  0  0  0
    4.1569    2.4000    0.0000 C   0  0  0  0  0  0  0  0  0  0  0  0
    5.5426    0.0000    0.0000 C   0  0  0  0  0  0  0  0  0  0  0  0
    0.0000   -1.6000    0.0000 C   0  0  0  0  0  0  0  0  0  0  0  0
   -1.3856   -2.4000    0.0000 N   0  0  0  0  0  0  0  0  0  0  0  0
   -1.3856   -4.0000    0.0000 C   0  0  0  0  0  0  0  0  0  0  0  0
    0.0000   -4.8000    0.0000 C   0  0  0  0  0  0  0  0  0  0  0  0
    1.3856   -4.0000    0.0000 C   0  0  0  0  0  0  0  0  0  0  0  0
    1.3856   -2.4000    0.0000 C   0  0  0  0  0  0  0  0  0  0  0  0
  1  2  1  0  0  0  0
  2  3  1  0  0  0  0
  2  7  2  0  0  0  0
  3  4  2  0  0  0  0
  4  5  1  0  0  0  0
  5  6  2  0  0  0  0
  5  8  1  0  0  0  0
  6  7  1  0  0  0  0
  8  9  1  6  0  0  0
  8 14  1  0  0  0  0
  9 10  1  0  0  0  0
 10 11  1  0  0  0  0
 11 12  1  0  0  0  0
 11 13  1  0  0  0  0
 14 15  1  0  0  0  0
 14 19  2  0  0  0  0
 15 16  2  0  0  0  0
 16 17  1  0  0  0  0
 17 18  2  0  0  0  0
 18 19  1  0  0  0  0
M  END
> <Acceptable>
true

> <IC50>
N/A

$$$$

Generated by Molecular Materials Informatics

 19 20  0  0  0  0  0  0  0  0999 V2000
    0.0000    0.0000    0.0000 C   0  0  0  0  0  0  0  0  0  0  0  0
    1.3856   -0.8000    0.0000 C   0  0  0  0  0  0  0  0  0  0  0  0
   -1.3856   -0.8000    0.0000 C   0  0  0  0  0  0  0  0  0  0  0  0
    0.0000    1.6000    0.0000 C   0  0  0  0  0  0  0  0  0  0  0  0
    1.3856   -2.4000    0.0000 C   0  0  0  0  0  0  0  0  0  0  0  0
    2.7713    0.0000    0.0000 C   0  0  0  0  0  0  0  0  0  0  0  0
   -2.7713    0.0000    0.0000 C   0  0  0  0  0  0  0  0  0  0  0  0
   -1.3856   -2.4000    0.0000 N   0  0  0  0  0  0  0  0  0  0  0  0
   -1.3856    2.4000    0.0000 C   0  0  0  0  0  0  0  0  0  0  0  0
    2.7713   -3.2000    0.0000 C   0  0  0  0  0  0  0  0  0  0  0  0
    4.1569   -0.8000    0.0000 C   0  0  0  0  0  0  0  0  0  0  0  0
   -4.1569   -0.8000    0.0000 C   0  0  0  0  0  0  0  0  0  0  0  0
   -2.7713   -3.2000    0.0000 C   0  0  0  0  0  0  0  0  0  0  0  0
   -1.3856    4.0000    0.0000 N   0  0  0  0  0  0  0  0  0  0  0  0
    4.1569   -2.4000    0.0000 C   0  0  0  0  0  0  0  0  0  0  0  0
   -4.1569   -2.4000    0.0000 C   0  0  0  0  0  0  0  0  0  0  0  0
    0.0000    4.8000    0.0000 C   0  0  0  0  0  0  0  0  0  0  0  0
   -2.7713    4.8000    0.0000 C   0  0  0  0  0  0  0  0  0  0  0  0
    5.5426   -3.2000    0.0000 Br  0  0  0  0  0  0  0  0  0  0  0  0
  1  2  1  0  0  0  0
  1  3  1  6  0  0  0
  1  4  1  0  0  0  0
  2  5  2  0  0  0  0
  2  6  1  0  0  0  0
  3  7  2  0  0  0  0
  3  8  1  0  0  0  0
  4  9  1  0  0  0  0
  5 10  1  0  0  0  0
  6 11  2  0  0  0  0
  7 12  1  0  0  0  0
  8 13  2  0  0  0  0
  9 14  1  0  0  0  0
 10 15  2  0  0  0  0
 11 15  1  0  0  0  0
 12 16  2  0  0  0  0
 13 16  1  0  0  0  0
 14 17  1  0  0  0  0
 14 18  1  0  0  0  0
 15 19  1  0  0  0  0
M  END
> <Acceptable>
false

> <IC50>
0.9

$$$$

Generated by Molecular Materials Informatics

 33 37  0  0  0  0  0  0  0  0999 V2000
   -2.4000    1.3856    0.0000 O   0  0  0  0  0  0  0  0  0  0  0  0
   -4.0000   -1.3856    0.0000 O   0  0  0  0  0  0  0  0  0  0  0  0
    8.0000   -2.7713    0.0000 O   0  0  0  0  0  0  0  0  0  0  0  0
    9.6000    0.0000    0.0000 O   0  0  0  0  0  0  0  0  0  0  0  0
    2.4000    1.3856    0.0000 N   0  0  0  0  0  0  0  0  0  0  0  0
    3.2000    0.0000    0.0000 C   0  0  0  0  0  0  0  0  0  0  0  0
    0.8000    1.3856    0.0000 C   0  0  0  0  0  0  0  0  0  0  0  0
    2.4000   -1.3856    0.0000 C   0  0  0  0  0  0  0  0  0  0  0  0
    3.2000    2.7713    0.0000 C   0  0  0  0  0  0  0  0  0  0  0  0
    0.0000    0.0000    0.0000 C   0  0  0  0  0  0  0  0  0  0  0  0
    4.8000    0.0000    0.0000 C   0  0  0  0  0  0  0  0  0  0  0  0
    0.8000   -1.3856    0.0000 C   0  0  0  0  0  0  0  0  0  0  0  0
    4.8000    2.7713    0.0000 C   0  0  0  0  0  0  0  0  0  0  0  0
    5.6000    1.3856    0.0000 C   0  0  0  0  0  0  0  0  0  0  0  0
    0.0000    2.7713    0.0000 C   0  0  0  0  0  0  0  0  0  0  0  0
   -1.6000    0.0000    0.0000 C   0  0  0  0  0  0  0  0  0  0  0  0
    5.6000   -1.3856    0.0000 C   0  0  0  0  0  0  0  0  0  0  0  0
    0.0000   -2.7713    0.0000 C   0  0  0  0  0  0  0  0  0  0  0  0
    7.2000    1.3856    0.0000 C   0  0  0  0  0  0  0  0  0  0  0  0
    0.8000    4.1569    0.0000 C   0  0  0  0  0  0  0  0  0  0  0  0
   -2.4000   -1.3856    0.0000 C   0  0  0  0  0  0  0  0  0  0  0  0
    7.2000   -1.3856    0.0000 C   0  0  0  0  0  0  0  0  0  0  0  0
   -1.6000   -2.7713    0.0000 C   0  0  0  0  0  0  0  0  0  0  0  0
    8.0000    0.0000    0.0000 C   0  0  0  0  0  0  0  0  0  0  0  0
    0.0000    5.5426    0.0000 C   0  0  0  0  0  0  0  0  0  0  0  0
    2.4000    4.1569    0.0000 C   0  0  0  0  0  0  0  0  0  0  0  0
    0.8000    6.9282    0.0000 C   0  0  0  0  0  0  0  0  0  0  0  0
    3.2000    5.5426    0.0000 C   0  0  0  0  0  0  0  0  0  0  0  0
   -4.0000    1.3856    0.0000 C   0  0  0  0  0  0  0  0  0  0  0  0
    2.4000    6.9282    0.0000 C   0  0  0  0  0  0  0  0  0  0  0  0
   -4.8000   -2.7713    0.0000 C   0  0  0  0  0  0  0  0  0  0  0  0
    9.6000   -2.7713    0.0000 C   0  0  0  0  0  0  0  0  0  0  0  0
   10.4000    1.3856    0.0000 C   0  0  0  0  0  0  0  0  0  0  0  0
  1 16  1  0  0  0  0
  1 29  1  0  0  0  0
  2 21  1  0  0  0  0
  2 31  1  0  0  0  0
  3 22  1  0  0  0  0
  3 32  1  0  0  0  0
  4 24  1  0  0  0  0
  4 33  1  0  0  0  0
  5  6  1  0  0  0  0
  5  7  1  0  0  0  0
  5  9  1  6  0  0  0
  6  8  1  0  0  0  0
  6 11  1  6  0  0  0
  7 10  1  0  0  0  0
  7 15  1  1  0  0  0
  8 12  1  0  0  0  0
  9 13  1  0  0  0  0
 10 12  2  0  0  0  0
 10 16  1  0  0  0  0
 11 14  2  0  0  0  0
 11 17  1  0  0  0  0
 12 18  1  0  0  0  0
 13 14  1  0  0  0  0
 14 19  1  0  0  0  0
 15 20  1  0  0  0  0
 16 21  2  0  0  0  0
 17 22  2  0  0  0  0
 18 23  2  0  0  0  0
 19 24  2  0  0  0  0
 20 25  2  0  0  0  0
 20 26  1  0  0  0  0
 21 23  1  0  0  0  0
 22 24  1  0  0  0  0
 25 27  1  0  0  0  0
 26 28  2  0  0  0  0
 27 30  2  0  0  0  0
 28 30  1  0  0  0  0
M  END
> <Acceptable>
false

> <IC50>
2.51

$$$$

Generated by Molecular Materials Informatics

 22 24  0  0  0  0  0  0  0  0999 V2000
   -3.2000    0.0000    0.0000 N   0  0  0  0  0  0  0  0  0  0  0  0
    0.0000    0.0000    0.0000 C   0  0  0  0  0  0  0  0  0  0  0  0
   -0.8000   -1.3856    0.0000 C   0  0  0  0  0  0  0  0  0  0  0  0
   -0.8000    1.3856    0.0000 C   0  0  0  0  0  0  0  0  0  0  0  0
   -2.4000   -1.3856    0.0000 C   0  0  0  0  0  0  0  0  0  0  0  0
   -2.4000    1.3856    0.0000 C   0  0  0  0  0  0  0  0  0  0  0  0
   -4.8000    0.0000    0.0000 C   0  0  0  0  0  0  0  0  0  0  0  0
    1.2257   -1.0285    0.0000 C   0  0  0  0  0  0  0  0  0  0  0  0
    1.2257    1.0285    0.0000 C   0  0  0  0  0  0  0  0  0  0  0  0
   -5.6000    1.3856    0.0000 C   0  0  0  0  0  0  0  0  0  0  0  0
   -5.6000   -1.3856    0.0000 C   0  0  0  0  0  0  0  0  0  0  0  0
   -6.4000    0.0000    0.0000 C   0  0  0  0  0  0  0  0  0  0  0  0
    0.9478   -2.6042    0.0000 C   0  0  0  0  0  0  0  0  0  0  0  0
    2.7292    0.4812    0.0000 C   0  0  0  0  0  0  0  0  0  0  0  0
    2.7292   -0.4812    0.0000 C   0  0  0  0  0  0  0  0  0  0  0  0
    0.9478    2.6042    0.0000 C   0  0  0  0  0  0  0  0  0  0  0  0
    2.1735   -3.6326    0.0000 C   0  0  0  0  0  0  0  0  0  0  0  0
    3.9549    1.5097    0.0000 C   0  0  0  0  0  0  0  0  0  0  0  0
    3.9548   -1.5097    0.0000 C   0  0  0  0  0  0  0  0  0  0  0  0
    2.1735    3.6326    0.0000 C   0  0  0  0  0  0  0  0  0  0  0  0
    3.6770   -3.0854    0.0000 C   0  0  0  0  0  0  0  0  0  0  0  0
    3.6770    3.0854    0.0000 C   0  0  0  0  0  0  0  0  0  0  0  0
  1  5  1  0  0  0  0
  1  6  1  0  0  0  0
  1  7  1  6  0  0  0
  2  3  1  0  0  0  0
  2  4  1  0  0  0  0
  2  8  1  0  0  0  0
  2  9  1  1  0  0  0
  3  5  1  0  0  0  0
  4  6  1  0  0  0  0
  7 10  1  0  0  0  0
  7 11  1  0  0  0  0
  7 12  1  0  0  0  0
  8 13  2  0  0  0  0
  8 15  1  0  0  0  0
  9 14  2  0  0  0  0
  9 16  1  0  0  0  0
 13 17  1  0  0  0  0
 14 18  1  0  0  0  0
 15 19  2  0  0  0  0
 16 20  2  0  0  0  0
 17 21  2  0  0  0  0
 18 22  2  0  0  0  0
 19 21  1  0  0  0  0
 20 22  1  0  0  0  0
M  END
> <Acceptable>
false

> <IC50>
10.2

$$$$

Generated by Molecular Materials Informatics

 21 22  0  0  0  0  0  0  0  0999 V2000
   -2.7713    0.0000    0.0000 O   0  0  0  0  0  0  0  0  0  0  0  0
   -1.3856    0.8000    0.0000 C   0  0  0  0  0  0  0  0  0  0  0  0
   -1.3856    2.4000    0.0000 N   0  0  0  0  0  0  0  0  0  0  0  0
   -2.7713    3.2000    0.0000 C   0  0  0  0  0  0  0  0  0  0  0  0
   -4.1569    2.4000    0.0000 C   0  0  0  0  0  0  0  0  0  0  0  0
   -4.1569    0.8000    0.0000 C   0  0  0  0  0  0  0  0  0  0  0  0
   -5.5426    3.2000    0.0000 C   0  0  0  0  0  0  0  0  0  0  0  0
   -5.5426    4.8000    0.0000 C   0  0  0  0  0  0  0  0  0  0  0  0
   -4.1569    5.6000    0.0000 C   0  0  0  0  0  0  0  0  0  0  0  0
   -2.7713    4.8000    0.0000 C   0  0  0  0  0  0  0  0  0  0  0  0
   -1.3856    5.6000    0.0000 C   0  0  0  0  0  0  0  0  0  0  0  0
    0.0000    0.0000    0.0000 C   0  0  0  0  0  0  0  0  0  0  0  0
    1.3856    0.8000    0.0000 N   0  0  0  0  0  0  0  0  0  0  0  0
    2.7713    0.0000    0.0000 C   0  0  0  0  0  0  0  0  0  0  0  0
    2.7713   -1.6000    0.0000 C   0  0  0  0  0  0  0  0  0  0  0  0
    1.3856   -2.4000    0.0000 C   0  0  0  0  0  0  0  0  0  0  0  0
    0.0000   -1.6000    0.0000 C   0  0  0  0  0  0  0  0  0  0  0  0
    1.3856    2.4000    0.0000 C   0  0  0  0  0  0  0  0  0  0  0  0
    2.7713    3.2000    0.0000 C   0  0  0  0  0  0  0  0  0  0  0  0
    2.7713    4.8000    0.0000 C   0  0  0  0  0  0  0  0  0  0  0  0
    4.1569    5.6000    0.0000 C   0  0  0  0  0  0  0  0  0  0  0  0
  1  2  2  0  0  0  0
  2  3  1  0  0  0  0
 12  2  1  6  0  0  0
  3  4  1  0  0  0  0
  4  5  1  0  0  0  0
  4 10  2  0  0  0  0
  5  6  1  0  0  0  0
  5  7  2  0  0  0  0
  7  8  1  0  0  0  0
  8  9  2  0  0  0  0
  9 10  1  0  0  0  0
 10 11  1  0  0  0  0
 12 13  1  0  0  0  0
 12 17  1  0  0  0  0
 13 14  1  0  0  0  0
 13 18  1  1  0  0  0
 14 15  1  0  0  0  0
 15 16  1  0  0  0  0
 16 17  1  0  0  0  0
 18 19  1  0  0  0  0
 19 20  1  0  0  0  0
 20 21  1  0  0  0  0
M  END
> <Acceptable>
false

> <IC50>
N/A

$$$$

Generated by Molecular Materials Informatics

 34 40  0  0  0  0  0  0  0  0999 V2000
    2.7713   -4.8000    0.0000 O   0  0  0  0  0  0  0  0  0  0  0  0
    2.7713   -3.2000    0.0000 C   0  0  0  0  0  0  0  0  0  0  0  0
    4.1569   -2.4000    0.0000 C   0  0  0  0  0  0  0  0  0  0  0  0
    4.1569   -0.8000    0.0000 C   0  0  0  0  0  0  0  0  0  0  0  0
    2.7713    0.0000    0.0000 C   0  0  0  0  0  0  0  0  0  0  0  0
    2.7713    1.6000    0.0000 C   0  0  0  0  0  0  0  0  0  0  0  0
    1.3856    2.4000    0.0000 C   0  0  0  0  0  0  0  0  0  0  0  0
    2.2421    1.5595    0.0000 N   0  0  0  0  0  0  0  0  0  0  0  0
    2.1413    0.3637    0.0000 C   0  0  0  0  0  0  0  0  0  0  0  0
    1.1561   -0.3215    0.0000 C   0  0  0  0  0  0  0  0  0  0  0  0
    0.0000    0.0000    0.0000 C   0  0  0  0  0  0  0  0  0  0  0  0
    1.3856   -0.8000    0.0000 C   0  0  0  0  0  0  0  0  0  0  0  0
    1.3856   -2.4000    0.0000 C   0  0  0  0  0  0  0  0  0  0  0  0
   -0.8944   -3.1492    0.0000 O   0  0  0  0  0  0  0  0  0  0  0  0
   -1.3856   -0.8000    0.0000 C   0  0  0  0  0  0  0  0  0  0  0  0
   -2.7713    0.0000    0.0000 C   0  0  0  0  0  0  0  0  0  0  0  0
   -4.1569   -0.8000    0.0000 O   0  0  0  0  0  0  0  0  0  0  0  0
   -4.1569   -2.4000    0.0000 C   0  0  0  0  0  0  0  0  0  0  0  0
   -2.2369    1.0745    0.0000 C   0  0  0  0  0  0  0  0  0  0  0  0
   -1.1977    1.6745    0.0000 C   0  0  0  0  0  0  0  0  0  0  0  0
    0.0000    1.6000    0.0000 C   0  0  0  0  0  0  0  0  0  0  0  0
   -1.3856    2.4000    0.0000 C   0  0  0  0  0  0  0  0  0  0  0  0
   -2.7713    1.6000    0.0000 C   0  0  0  0  0  0  0  0  0  0  0  0
   -4.1569    2.4000    0.0000 C   0  0  0  0  0  0  0  0  0  0  0  0
   -5.7432    2.1912    0.0000 O   0  0  0  0  0  0  0  0  0  0  0  0
   -5.1309    1.1306    0.0000 C   0  0  0  0  0  0  0  0  0  0  0  0
   -4.1569    4.0000    0.0000 C   0  0  0  0  0  0  0  0  0  0  0  0
   -2.7713    4.8000    0.0000 C   0  0  0  0  0  0  0  0  0  0  0  0
   -4.1569    5.6000    0.0000 C   0  0  0  0  0  0  0  0  0  0  0  0
   -5.5426    4.8000    0.0000 C   0  0  0  0  0  0  0  0  0  0  0  0
    3.7422    2.1161    0.0000 C   0  0  0  0  0  0  0  0  0  0  0  0
    4.0101    3.6935    0.0000 C   0  0  0  0  0  0  0  0  0  0  0  0
    3.4535    5.1936    0.0000 C   0  0  0  0  0  0  0  0  0  0  0  0
    5.0309    4.9256    0.0000 C   0  0  0  0  0  0  0  0  0  0  0  0
  1  2  1  0  0  0  0
  2  3  1  0  0  0  0
  2 13  2  0  0  0  0
  3  4  2  0  0  0  0
  4  5  1  0  0  0  0
  5  6  1  0  0  0  0
  5 12  2  0  0  0  0
  7  6  1  6  0  0  0
  7  8  1  0  0  0  0
  7 21  1  0  0  0  0
  8  9  1  0  0  0  0
  8 31  1  1  0  0  0
  9 10  1  0  0  0  0
 11 10  1  1  0  0  0
 11 12  1  0  0  0  0
 11 15  1  0  0  0  0
 11 21  1  0  0  0  0
 12 13  1  0  0  0  0
 13 14  1  0  0  0  0
 15 14  1  6  0  0  0
 15 16  1  0  0  0  0
 16 17  1  6  0  0  0
 16 19  1  0  0  0  0
 16 23  1  0  0  0  0
 17 18  1  0  0  0  0
 19 20  1  0  0  0  0
 20 21  1  0  0  0  0
 21 22  1  1  0  0  0
 23 22  1  1  0  0  0
 23 24  1  0  0  0  0
 24 25  1  0  0  0  0
 24 26  1  6  0  0  0
 24 27  1  0  0  0  0
 27 28  1  0  0  0  0
 27 29  1  0  0  0  0
 27 30  1  0  0  0  0
 31 32  1  0  0  0  0
 32 33  1  0  0  0  0
 32 34  1  0  0  0  0
 33 34  1  0  0  0  0
M  END
> <Acceptable>
false

> <IC50>
7.58

$$$$

Generated by Molecular Materials Informatics

 16 16  0  0  0  0  0  0  0  0999 V2000
   -4.1569    0.8000    0.0000 Cl  0  0  0  0  0  0  0  0  0  0  0  0
   -2.7713    0.0000    0.0000 C   0  0  0  0  0  0  0  0  0  0  0  0
   -2.7713   -1.6000    0.0000 C   0  0  0  0  0  0  0  0  0  0  0  0
   -1.3856   -2.4000    0.0000 C   0  0  0  0  0  0  0  0  0  0  0  0
    0.0000   -1.6000    0.0000 C   0  0  0  0  0  0  0  0  0  0  0  0
    0.0000    0.0000    0.0000 C   0  0  0  0  0  0  0  0  0  0  0  0
   -1.3856    0.8000    0.0000 C   0  0  0  0  0  0  0  0  0  0  0  0
    1.3856    0.8000    0.0000 C   0  0  0  0  0  0  0  0  0  0  0  0
    1.3856    2.4000    0.0000 O   0  0  0  0  0  0  0  0  0  0  0  0
    2.7713    0.0000    0.0000 C   0  0  0  0  0  0  0  0  0  0  0  0
    4.1569    0.8000    0.0000 N   0  0  0  0  0  0  0  0  0  0  0  0
    5.5426    0.0000    0.0000 C   0  0  0  0  0  0  0  0  0  0  0  0
    5.5426   -1.6000    0.0000 C   0  0  0  0  0  0  0  0  0  0  0  0
    6.9282    0.8000    0.0000 C   0  0  0  0  0  0  0  0  0  0  0  0
    6.9282   -0.8000    0.0000 C   0  0  0  0  0  0  0  0  0  0  0  0
    2.7713   -1.6000    0.0000 C   0  0  0  0  0  0  0  0  0  0  0  0
  1  2  1  0  0  0  0
  2  3  1  0  0  0  0
  2  7  2  0  0  0  0
  3  4  2  0  0  0  0
  4  5  1  0  0  0  0
  5  6  2  0  0  0  0
  6  7  1  0  0  0  0
  6  8  1  0  0  0  0
  8  9  2  0  0  0  0
  8 10  1  0  0  0  0
 10 11  1  0  0  0  0
 10 16  1  6  0  0  0
 11 12  1  0  0  0  0
 12 13  1  0  0  0  0
 12 14  1  0  0  0  0
 12 15  1  0  0  0  0
M  END
> <Acceptable>
true

> <IC50>
79.4

$$$$

Generated by Molecular Materials Informatics

 28 31  0  0  0  0  0  0  0  0999 V2000
    3.2000   -2.7713    0.0000 O   0  0  0  0  0  0  0  0  0  0  0  0
    3.2000    2.7713    0.0000 O   0  0  0  0  0  0  0  0  0  0  0  0
    3.2000    0.0000    0.0000 N   0  0  0  0  0  0  0  0  0  0  0  0
    9.6000    2.7713    0.0000 N   0  0  0  0  0  0  0  0  0  0  0  0
   12.8000    2.7713    0.0000 N   0  0  0  0  0  0  0  0  0  0  0  0
   15.2000    1.3856    0.0000 N   0  0  0  0  0  0  0  0  0  0  0  0
   15.2000    4.1569    0.0000 N   0  0  0  0  0  0  0  0  0  0  0  0
    0.0000    0.0000    0.0000 C   0  0  0  0  0  0  0  0  0  0  0  0
   -0.9405   -1.2944    0.0000 C   0  0  0  0  0  0  0  0  0  0  0  0
   -0.9405    1.2944    0.0000 C   0  0  0  0  0  0  0  0  0  0  0  0
   -2.4621   -0.8000    0.0000 C   0  0  0  0  0  0  0  0  0  0  0  0
   -2.4621    0.8000    0.0000 C   0  0  0  0  0  0  0  0  0  0  0  0
    0.8000   -1.3856    0.0000 C   0  0  0  0  0  0  0  0  0  0  0  0
    0.8000    1.3856    0.0000 C   0  0  0  0  0  0  0  0  0  0  0  0
    2.4000   -1.3856    0.0000 C   0  0  0  0  0  0  0  0  0  0  0  0
    2.4000    1.3856    0.0000 C   0  0  0  0  0  0  0  0  0  0  0  0
    4.8000    0.0000    0.0000 C   0  0  0  0  0  0  0  0  0  0  0  0
    5.6000    1.3856    0.0000 C   0  0  0  0  0  0  0  0  0  0  0  0
    7.2000    1.3856    0.0000 C   0  0  0  0  0  0  0  0  0  0  0  0
    8.0000    2.7713    0.0000 C   0  0  0  0  0  0  0  0  0  0  0  0
   10.4000    4.1569    0.0000 C   0  0  0  0  0  0  0  0  0  0  0  0
   10.4000    1.3856    0.0000 C   0  0  0  0  0  0  0  0  0  0  0  0
   12.0000    4.1569    0.0000 C   0  0  0  0  0  0  0  0  0  0  0  0
   12.0000    1.3856    0.0000 C   0  0  0  0  0  0  0  0  0  0  0  0
   14.4000    2.7713    0.0000 C   0  0  0  0  0  0  0  0  0  0  0  0
   16.8000    1.3856    0.0000 C   0  0  0  0  0  0  0  0  0  0  0  0
   16.8000    4.1569    0.0000 C   0  0  0  0  0  0  0  0  0  0  0  0
   17.6000    2.7713    0.0000 C   0  0  0  0  0  0  0  0  0  0  0  0
  1 15  2  0  0  0  0
  2 16  2  0  0  0  0
  3 15  1  0  0  0  0
  3 16  1  0  0  0  0
  3 17  1  0  0  0  0
  4 20  1  0  0  0  0
  4 21  1  0  0  0  0
  4 22  1  0  0  0  0
  5 23  1  0  0  0  0
  5 24  1  0  0  0  0
  5 25  1  0  0  0  0
  6 25  2  0  0  0  0
  6 26  1  0  0  0  0
  7 25  1  0  0  0  0
  7 27  2  0  0  0  0
  8  9  1  0  0  0  0
  8 10  1  0  0  0  0
  8 13  1  0  0  0  0
  8 14  1  0  0  0  0
  9 11  1  0  0  0  0
 10 12  1  0  0  0  0
 11 12  1  0  0  0  0
 13 15  1  0  0  0  0
 14 16  1  0  0  0  0
 17 18  1  0  0  0  0
 18 19  1  0  0  0  0
 19 20  1  0  0  0  0
 21 23  1  0  0  0  0
 22 24  1  0  0  0  0
 26 28  2  0  0  0  0
 27 28  1  0  0  0  0
M  END
> <Acceptable>
false

> <IC50>
3.98

$$$$

Generated by Molecular Materials Informatics

 14 13  0  0  0  0  0  0  0  0999 V2000
    0.0000    0.0000    0.0000 S   0  0  0  0  0  0  0  0  0  0  0  0
    0.8000   -1.3856    0.0000 O   0  0  0  0  0  0  0  0  0  0  0  0
   -0.8000    1.3856    0.0000 O   0  0  0  0  0  0  0  0  0  0  0  0
   -1.3856   -0.8000    0.0000 O   0  0  0  0  0  0  0  0  0  0  0  0
   -2.7713    0.0000    0.0000 C   0  0  0  0  0  0  0  0  0  0  0  0
   -4.1569   -0.8000    0.0000 C   0  0  0  0  0  0  0  0  0  0  0  0
   -5.5426    0.0000    0.0000 C   0  0  0  0  0  0  0  0  0  0  0  0
   -6.9282   -0.8000    0.0000 C   0  0  0  0  0  0  0  0  0  0  0  0
   -8.3138    0.0000    0.0000 O   0  0  0  0  0  0  0  0  0  0  0  0
   -9.6995   -0.8000    0.0000 S   0  0  0  0  0  0  0  0  0  0  0  0
   -8.8995   -2.1856    0.0000 O   0  0  0  0  0  0  0  0  0  0  0  0
  -10.4995    0.5856    0.0000 O   0  0  0  0  0  0  0  0  0  0  0  0
  -11.0851   -1.6000    0.0000 C   0  0  0  0  0  0  0  0  0  0  0  0
    1.3856    0.8000    0.0000 C   0  0  0  0  0  0  0  0  0  0  0  0
  1  2  2  0  0  0  0
  1  3  2  0  0  0  0
  1  4  1  0  0  0  0
  1 14  1  0  0  0  0
  4  5  1  0  0  0  0
  5  6  1  0  0  0  0
  6  7  1  0  0  0  0
  7  8  1  0  0  0  0
  8  9  1  0  0  0  0
  9 10  1  0  0  0  0
 10 11  2  0  0  0  0
 10 12  2  0  0  0  0
 10 13  1  0  0  0  0
M  END
> <Acceptable>
true

> <IC50>
N/A

$$$$

Generated by Molecular Materials Informatics

 16 16  0  0  0  0  0  0  0  0999 V2000
   -4.1569   -2.4000    0.0000 O   0  0  0  0  0  0  0  0  0  0  0  0
   -2.7713   -1.6000    0.0000 C   0  0  0  0  0  0  0  0  0  0  0  0
   -1.3856   -2.4000    0.0000 N   0  0  0  0  0  0  0  0  0  0  0  0
    0.0000   -1.6000    0.0000 C   0  0  0  0  0  0  0  0  0  0  0  0
    1.3856   -2.4000    0.0000 O   0  0  0  0  0  0  0  0  0  0  0  0
    0.0000    0.0000    0.0000 C   0  0  0  0  0  0  0  0  0  0  0  0
    1.5757   -0.2778    0.0000 C   0  0  0  0  0  0  0  0  0  0  0  0
    2.1229   -1.7813    0.0000 C   0  0  0  0  0  0  0  0  0  0  0  0
    3.6986   -2.0592    0.0000 C   0  0  0  0  0  0  0  0  0  0  0  0
    0.5472    1.5035    0.0000 C   0  0  0  0  0  0  0  0  0  0  0  0
    2.1229    1.7813    0.0000 C   0  0  0  0  0  0  0  0  0  0  0  0
    3.1514    0.5557    0.0000 C   0  0  0  0  0  0  0  0  0  0  0  0
    2.6702    3.2849    0.0000 C   0  0  0  0  0  0  0  0  0  0  0  0
   -1.3856    0.8000    0.0000 C   0  0  0  0  0  0  0  0  0  0  0  0
   -1.3856    2.4000    0.0000 O   0  0  0  0  0  0  0  0  0  0  0  0
   -2.7713    0.0000    0.0000 N   0  0  0  0  0  0  0  0  0  0  0  0
  1  2  2  0  0  0  0
  2  3  1  0  0  0  0
  2 16  1  0  0  0  0
  3  4  1  0  0  0  0
  4  5  2  0  0  0  0
  4  6  1  0  0  0  0
  6  7  1  0  0  0  0
  6 10  1  0  0  0  0
  6 14  1  0  0  0  0
  7  8  1  0  0  0  0
  8  9  2  0  0  0  0
 10 11  1  0  0  0  0
 11 12  1  0  0  0  0
 11 13  1  0  0  0  0
 14 15  2  0  0  0  0
 14 16  1  0  0  0  0
M  END
> <Acceptable>
true

> <IC50>
N/A

$$$$

Generated by Molecular Materials Informatics

 33 36  0  0  0  0  0  0  0  0999 V2000
   -9.6995   -2.4000    0.0000 O   0  0  0  0  0  0  0  0  0  0  0  0
   -9.6995   -0.8000    0.0000 C   0  0  0  0  0  0  0  0  0  0  0  0
  -11.0851    0.0000    0.0000 N   0  0  0  0  0  0  0  0  0  0  0  0
  -12.4708   -0.8000    0.0000 C   0  0  0  0  0  0  0  0  0  0  0  0
  -13.8564    0.0000    0.0000 C   0  0  0  0  0  0  0  0  0  0  0  0
   -8.3138    0.0000    0.0000 N   0  0  0  0  0  0  0  0  0  0  0  0
   -8.3138    1.6000    0.0000 C   0  0  0  0  0  0  0  0  0  0  0  0
   -9.6995    2.4000    0.0000 C   0  0  0  0  0  0  0  0  0  0  0  0
   -9.6995    4.0000    0.0000 C   0  0  0  0  0  0  0  0  0  0  0  0
  -11.0851    4.8000    0.0000 N   0  0  0  0  0  0  0  0  0  0  0  0
  -12.4708    4.0000    0.0000 C   0  0  0  0  0  0  0  0  0  0  0  0
  -11.0851    6.4000    0.0000 C   0  0  0  0  0  0  0  0  0  0  0  0
   -6.9282   -0.8000    0.0000 C   0  0  0  0  0  0  0  0  0  0  0  0
   -6.9282   -2.4000    0.0000 O   0  0  0  0  0  0  0  0  0  0  0  0
   -5.5426    0.0000    0.0000 C   0  0  0  0  0  0  0  0  0  0  0  0
   -5.5426    1.6000    0.0000 C   0  0  0  0  0  0  0  0  0  0  0  0
   -4.1569    2.4000    0.0000 N   0  0  0  0  0  0  0  0  0  0  0  0
   -4.1569    4.0000    0.0000 C   0  0  0  0  0  0  0  0  0  0  0  0
   -5.5426    4.8000    0.0000 C   0  0  0  0  0  0  0  0  0  0  0  0
   -5.5426    6.4000    0.0000 C   0  0  0  0  0  0  0  0  0  0  0  0
   -2.7713    1.6000    0.0000 C   0  0  0  0  0  0  0  0  0  0  0  0
   -1.3856    2.4000    0.0000 C   0  0  0  0  0  0  0  0  0  0  0  0
    0.0000    1.6000    0.0000 C   0  0  0  0  0  0  0  0  0  0  0  0
    1.5823    1.8373    0.0000 C   0  0  0  0  0  0  0  0  0  0  0  0
    2.3823    0.4517    0.0000 N   0  0  0  0  0  0  0  0  0  0  0  0
    1.3856   -0.8000    0.0000 C   0  0  0  0  0  0  0  0  0  0  0  0
    1.3856   -2.4000    0.0000 C   0  0  0  0  0  0  0  0  0  0  0  0
    0.0000   -3.2000    0.0000 C   0  0  0  0  0  0  0  0  0  0  0  0
   -1.3856   -2.4000    0.0000 C   0  0  0  0  0  0  0  0  0  0  0  0
   -1.3856   -0.8000    0.0000 C   0  0  0  0  0  0  0  0  0  0  0  0
    0.0000    0.0000    0.0000 C   0  0  0  0  0  0  0  0  0  0  0  0
   -2.7713    0.0000    0.0000 C   0  0  0  0  0  0  0  0  0  0  0  0
   -4.1569   -0.8000    0.0000 C   0  0  0  0  0  0  0  0  0  0  0  0
  1  2  2  0  0  0  0
  2  3  1  0  0  0  0
  2  6  1  0  0  0  0
  3  4  1  0  0  0  0
  4  5  1  0  0  0  0
  6  7  1  0  0  0  0
  6 13  1  0  0  0  0
  7  8  1  0  0  0  0
  8  9  1  0  0  0  0
  9 10  1  0  0  0  0
 10 11  1  0  0  0  0
 10 12  1  0  0  0  0
 13 14  2  0  0  0  0
 15 13  1  1  0  0  0
 15 16  1  0  0  0  0
 15 33  1  0  0  0  0
 16 17  1  0  0  0  0
 17 18  1  1  0  0  0
 17 21  1  0  0  0  0
 18 19  1  0  0  0  0
 19 20  2  0  0  0  0
 21 22  1  6  0  0  0
 21 32  1  0  0  0  0
 22 23  1  0  0  0  0
 23 24  2  0  0  0  0
 23 31  1  0  0  0  0
 24 25  1  0  0  0  0
 25 26  1  0  0  0  0
 26 27  1  0  0  0  0
 26 31  2  0  0  0  0
 27 28  2  0  0  0  0
 28 29  1  0  0  0  0
 29 30  2  0  0  0  0
 30 31  1  0  0  0  0
 30 32  1  0  0  0  0
 32 33  1  1  0  0  0
M  END
> <Acceptable>
true

> <IC50>
N/A

$$$$

Generated by Molecular Materials Informatics

 14 15  0  0  0  0  0  0  0  0999 V2000
   -4.8000    0.0000    0.0000 O   0  0  0  0  0  0  0  0  0  0  0  0
   -3.2000    0.0000    0.0000 C   0  0  0  0  0  0  0  0  0  0  0  0
   -2.4000   -1.3856    0.0000 N   0  0  0  0  0  0  0  0  0  0  0  0
   -3.2000   -2.7713    0.0000 C   0  0  0  0  0  0  0  0  0  0  0  0
   -0.8000   -1.3856    0.0000 C   0  0  0  0  0  0  0  0  0  0  0  0
    0.2706   -2.5747    0.0000 N   0  0  0  0  0  0  0  0  0  0  0  0
    1.7323   -1.9239    0.0000 C   0  0  0  0  0  0  0  0  0  0  0  0
    1.5650   -0.3327    0.0000 N   0  0  0  0  0  0  0  0  0  0  0  0
    2.7541    0.7380    0.0000 C   0  0  0  0  0  0  0  0  0  0  0  0
    0.0000    0.0000    0.0000 C   0  0  0  0  0  0  0  0  0  0  0  0
   -0.8000    1.3856    0.0000 C   0  0  0  0  0  0  0  0  0  0  0  0
    0.0000    2.7713    0.0000 O   0  0  0  0  0  0  0  0  0  0  0  0
   -2.4000    1.3856    0.0000 N   0  0  0  0  0  0  0  0  0  0  0  0
   -3.2000    2.7713    0.0000 C   0  0  0  0  0  0  0  0  0  0  0  0
  1  2  2  0  0  0  0
  2  3  1  0  0  0  0
  2 13  1  0  0  0  0
  3  4  1  0  0  0  0
  3  5  1  0  0  0  0
  5  6  1  0  0  0  0
  5 10  2  0  0  0  0
  6  7  2  0  0  0  0
  7  8  1  0  0  0  0
  8  9  1  0  0  0  0
  8 10  1  0  0  0  0
 10 11  1  0  0  0  0
 11 12  2  0  0  0  0
 11 13  1  0  0  0  0
 13 14  1  0  0  0  0
M  END
> <Acceptable>
false

> <IC50>
4.9

$$$$

Generated by Molecular Materials Informatics

 30 32  0  0  0  0  0  0  0  0999 V2000
    8.3138    4.8000    0.0000 O   0  0  0  0  0  0  0  0  0  0  0  0
    8.3138    3.2000    0.0000 C   0  0  0  0  0  0  0  0  0  0  0  0
    6.9282    2.4000    0.0000 C   0  0  0  0  0  0  0  0  0  0  0  0
    6.9282    0.8000    0.0000 C   0  0  0  0  0  0  0  0  0  0  0  0
    5.5426    0.0000    0.0000 C   0  0  0  0  0  0  0  0  0  0  0  0
    4.1569    0.8000    0.0000 C   0  0  0  0  0  0  0  0  0  0  0  0
    2.7713    0.0000    0.0000 C   0  0  0  0  0  0  0  0  0  0  0  0
    2.7713   -1.6000    0.0000 C   0  0  0  0  0  0  0  0  0  0  0  0
    1.3856   -2.4000    0.0000 C   0  0  0  0  0  0  0  0  0  0  0  0
    0.0000   -1.6000    0.0000 C   0  0  0  0  0  0  0  0  0  0  0  0
    0.0000    0.0000    0.0000 C   0  0  0  0  0  0  0  0  0  0  0  0
   -1.4617   -0.6508    0.0000 C   0  0  0  0  0  0  0  0  0  0  0  0
    1.3856    0.8000    0.0000 C   0  0  0  0  0  0  0  0  0  0  0  0
    1.0530    2.3650    0.0000 C   0  0  0  0  0  0  0  0  0  0  0  0
   -0.5383    2.5323    0.0000 C   0  0  0  0  0  0  0  0  0  0  0  0
   -1.1890    1.0706    0.0000 C   0  0  0  0  0  0  0  0  0  0  0  0
   -2.7541    0.7379    0.0000 C   0  0  0  0  0  0  0  0  0  0  0  0
   -3.2485   -0.7837    0.0000 C   0  0  0  0  0  0  0  0  0  0  0  0
   -3.8247    1.9270    0.0000 C   0  0  0  0  0  0  0  0  0  0  0  0
   -5.3897    1.5943    0.0000 C   0  0  0  0  0  0  0  0  0  0  0  0
   -6.4603    2.7834    0.0000 C   0  0  0  0  0  0  0  0  0  0  0  0
   -8.0254    2.4507    0.0000 C   0  0  0  0  0  0  0  0  0  0  0  0
   -8.5198    0.9290    0.0000 O   0  0  0  0  0  0  0  0  0  0  0  0
   -9.0960    3.6397    0.0000 C   0  0  0  0  0  0  0  0  0  0  0  0
   -9.5904    2.1180    0.0000 C   0  0  0  0  0  0  0  0  0  0  0  0
    8.3138    0.0000    0.0000 C   0  0  0  0  0  0  0  0  0  0  0  0
    8.3138   -1.6000    0.0000 C   0  0  0  0  0  0  0  0  0  0  0  0
    9.6995    0.8000    0.0000 C   0  0  0  0  0  0  0  0  0  0  0  0
   11.0851    0.0000    0.0000 O   0  0  0  0  0  0  0  0  0  0  0  0
    9.6995    2.4000    0.0000 C   0  0  0  0  0  0  0  0  0  0  0  0
  2  1  1  1  0  0  0
  2  3  1  0  0  0  0
  2 30  1  0  0  0  0
  3  4  1  0  0  0  0
  4  5  2  0  0  0  0
  4 26  1  0  0  0  0
  5  6  1  0  0  0  0
  6  7  2  0  0  0  0
  7  8  1  0  0  0  0
  7 13  1  0  0  0  0
  8  9  1  0  0  0  0
  9 10  1  0  0  0  0
 10 11  1  0  0  0  0
 11 12  1  1  0  0  0
 11 13  1  0  0  0  0
 11 16  1  0  0  0  0
 13 14  1  1  0  0  0
 14 15  1  0  0  0  0
 16 15  1  1  0  0  0
 16 17  1  0  0  0  0
 17 18  1  6  0  0  0
 17 19  1  0  0  0  0
 19 20  1  0  0  0  0
 20 21  1  0  0  0  0
 21 22  1  0  0  0  0
 22 23  1  0  0  0  0
 22 24  1  0  0  0  0
 22 25  1  0  0  0  0
 26 27  2  0  0  0  0
 26 28  1  0  0  0  0
 28 29  1  6  0  0  0
 28 30  1  0  0  0  0
M  END
> <Acceptable>
true

> <IC50>
N/A

$$$$

Generated by Molecular Materials Informatics

 26 29  0  0  0  0  0  0  0  0999 V2000
   -9.6000    0.0000    0.0000 O   0  0  0  0  0  0  0  0  0  0  0  0
   -8.0000    0.0000    0.0000 C   0  0  0  0  0  0  0  0  0  0  0  0
   -7.2000    1.3856    0.0000 C   0  0  0  0  0  0  0  0  0  0  0  0
   -5.6000    1.3856    0.0000 C   0  0  0  0  0  0  0  0  0  0  0  0
   -4.8000    2.7713    0.0000 C   0  0  0  0  0  0  0  0  0  0  0  0
   -3.2000    2.7713    0.0000 C   0  0  0  0  0  0  0  0  0  0  0  0
   -2.4000    1.3856    0.0000 C   0  0  0  0  0  0  0  0  0  0  0  0
   -0.8000    1.3856    0.0000 C   0  0  0  0  0  0  0  0  0  0  0  0
    0.2706    2.5747    0.0000 C   0  0  0  0  0  0  0  0  0  0  0  0
    1.7323    1.9239    0.0000 C   0  0  0  0  0  0  0  0  0  0  0  0
    1.5650    0.3327    0.0000 C   0  0  0  0  0  0  0  0  0  0  0  0
    2.2664   -1.1054    0.0000 O   0  0  0  0  0  0  0  0  0  0  0  0
    3.1650    0.3327    0.0000 C   0  0  0  0  0  0  0  0  0  0  0  0
    3.9650    1.7183    0.0000 C   0  0  0  0  0  0  0  0  0  0  0  0
    5.5650    1.7183    0.0000 C   0  0  0  0  0  0  0  0  0  0  0  0
    6.3650    0.3327    0.0000 O   0  0  0  0  0  0  0  0  0  0  0  0
    6.3650    3.1039    0.0000 O   0  0  0  0  0  0  0  0  0  0  0  0
    0.0000    0.0000    0.0000 C   0  0  0  0  0  0  0  0  0  0  0  0
    0.9405   -1.2944    0.0000 C   0  0  0  0  0  0  0  0  0  0  0  0
   -0.8000   -1.3856    0.0000 C   0  0  0  0  0  0  0  0  0  0  0  0
   -2.4000   -1.3856    0.0000 C   0  0  0  0  0  0  0  0  0  0  0  0
   -3.2000    0.0000    0.0000 C   0  0  0  0  0  0  0  0  0  0  0  0
   -4.8000    0.0000    0.0000 C   0  0  0  0  0  0  0  0  0  0  0  0
   -4.0000   -1.3856    0.0000 C   0  0  0  0  0  0  0  0  0  0  0  0
   -5.6000   -1.3856    0.0000 C   0  0  0  0  0  0  0  0  0  0  0  0
   -7.2000   -1.3856    0.0000 C   0  0  0  0  0  0  0  0  0  0  0  0
  1  2  2  0  0  0  0
  2  3  1  0  0  0  0
  2 26  1  0  0  0  0
  3  4  2  0  0  0  0
  4  5  1  0  0  0  0
  4 23  1  0  0  0  0
  5  6  2  0  0  0  0
  7  6  1  6  0  0  0
  7  8  1  0  0  0  0
  7 22  1  0  0  0  0
  8  9  1  6  0  0  0
  8 18  1  0  0  0  0
  9 10  1  0  0  0  0
 10 11  1  0  0  0  0
 11 12  1  6  0  0  0
 11 13  1  0  0  0  0
 11 18  1  0  0  0  0
 13 14  1  0  0  0  0
 14 15  1  0  0  0  0
 15 16  2  0  0  0  0
 15 17  1  0  0  0  0
 18 19  1  1  0  0  0
 18 20  1  0  0  0  0
 20 21  1  0  0  0  0
 22 21  1  6  0  0  0
 22 23  1  0  0  0  0
 23 24  1  6  0  0  0
 23 25  1  0  0  0  0
 25 26  1  0  0  0  0
M  END
> <Acceptable>
true

> <IC50>
104

$$$$

Generated by Molecular Materials Informatics

 26 29  0  0  0  0  0  0  0  0999 V2000
    2.2664   -1.1054    0.0000 O   0  0  0  0  0  0  0  0  0  0  0  0
   -9.6000    0.0000    0.0000 O   0  0  0  0  0  0  0  0  0  0  0  0
    6.3650    0.3327    0.0000 O   0  0  0  0  0  0  0  0  0  0  0  0
    6.3650    3.1039    0.0000 O   0  0  0  0  0  0  0  0  0  0  0  0
    0.0000    0.0000    0.0000 C   0  0  0  0  0  0  0  0  0  0  0  0
   -0.8000    1.3856    0.0000 C   0  0  0  0  0  0  0  0  0  0  0  0
   -2.4000    1.3856    0.0000 C   0  0  0  0  0  0  0  0  0  0  0  0
    1.5650    0.3327    0.0000 C   0  0  0  0  0  0  0  0  0  0  0  0
   -3.2000    0.0000    0.0000 C   0  0  0  0  0  0  0  0  0  0  0  0
   -0.8000   -1.3856    0.0000 C   0  0  0  0  0  0  0  0  0  0  0  0
    0.2706    2.5747    0.0000 C   0  0  0  0  0  0  0  0  0  0  0  0
   -2.4000   -1.3856    0.0000 C   0  0  0  0  0  0  0  0  0  0  0  0
    1.7323    1.9239    0.0000 C   0  0  0  0  0  0  0  0  0  0  0  0
   -4.8000    0.0000    0.0000 C   0  0  0  0  0  0  0  0  0  0  0  0
    0.9405   -1.2944    0.0000 C   0  0  0  0  0  0  0  0  0  0  0  0
    3.1650    0.3327    0.0000 C   0  0  0  0  0  0  0  0  0  0  0  0
   -3.2000    2.7713    0.0000 C   0  0  0  0  0  0  0  0  0  0  0  0
   -5.6000    1.3856    0.0000 C   0  0  0  0  0  0  0  0  0  0  0  0
   -5.6000   -1.3856    0.0000 C   0  0  0  0  0  0  0  0  0  0  0  0
   -4.0000   -1.3856    0.0000 C   0  0  0  0  0  0  0  0  0  0  0  0
   -4.8000    2.7713    0.0000 C   0  0  0  0  0  0  0  0  0  0  0  0
    3.9650    1.7183    0.0000 C   0  0  0  0  0  0  0  0  0  0  0  0
   -7.2000   -1.3856    0.0000 C   0  0  0  0  0  0  0  0  0  0  0  0
   -7.2000    1.3856    0.0000 C   0  0  0  0  0  0  0  0  0  0  0  0
   -8.0000    0.0000    0.0000 C   0  0  0  0  0  0  0  0  0  0  0  0
    5.5650    1.7183    0.0000 C   0  0  0  0  0  0  0  0  0  0  0  0
  8  1  1  6  0  0  0
  2 25  2  0  0  0  0
  3 26  1  0  0  0  0
  4 26  2  0  0  0  0
  5  6  1  0  0  0  0
  5  8  1  0  0  0  0
  5 10  1  0  0  0  0
  5 15  1  6  0  0  0
  6  7  1  0  0  0  0
  6 11  1  1  0  0  0
  7  9  1  0  0  0  0
  7 17  1  1  0  0  0
  8 13  1  0  0  0  0
  8 16  1  0  0  0  0
  9 12  1  1  0  0  0
  9 14  1  0  0  0  0
 10 12  1  0  0  0  0
 11 13  1  0  0  0  0
 14 18  1  0  0  0  0
 14 19  1  0  0  0  0
 14 20  1  6  0  0  0
 16 22  1  0  0  0  0
 17 21  2  0  0  0  0
 18 21  1  0  0  0  0
 18 24  2  0  0  0  0
 19 23  1  0  0  0  0
 22 26  1  0  0  0  0
 23 25  1  0  0  0  0
 24 25  1  0  0  0  0
M  END
> <Acceptable>
true

> <IC50>
104.2

$$$$

Generated by Molecular Materials Informatics

 22 22  0  0  0  0  0  0  0  0999 V2000
   -6.9282    2.4000    0.0000 O   0  0  0  0  0  0  0  0  0  0  0  0
    1.3856    0.8000    0.0000 O   0  0  0  0  0  0  0  0  0  0  0  0
    1.3856   -2.4000    0.0000 O   0  0  0  0  0  0  0  0  0  0  0  0
   -5.5426    0.0000    0.0000 N   0  0  0  0  0  0  0  0  0  0  0  0
  -11.0851    0.0000    0.0000 C   0  0  0  0  0  0  0  0  0  0  0  0
   -9.6995    0.8000    0.0000 C   0  0  0  0  0  0  0  0  0  0  0  0
  -12.4708    0.8000    0.0000 C   0  0  0  0  0  0  0  0  0  0  0  0
   -8.3138    0.0000    0.0000 C   0  0  0  0  0  0  0  0  0  0  0  0
  -16.6277    0.0000    0.0000 C   0  0  0  0  0  0  0  0  0  0  0  0
  -13.8564    0.0000    0.0000 C   0  0  0  0  0  0  0  0  0  0  0  0
   -6.9282    0.8000    0.0000 C   0  0  0  0  0  0  0  0  0  0  0  0
  -15.2420    0.8000    0.0000 C   0  0  0  0  0  0  0  0  0  0  0  0
   -4.1569    0.8000    0.0000 C   0  0  0  0  0  0  0  0  0  0  0  0
   -2.7713    0.0000    0.0000 C   0  0  0  0  0  0  0  0  0  0  0  0
  -16.6277   -1.6000    0.0000 C   0  0  0  0  0  0  0  0  0  0  0  0
  -18.0133    0.8000    0.0000 C   0  0  0  0  0  0  0  0  0  0  0  0
   -1.3856    0.8000    0.0000 C   0  0  0  0  0  0  0  0  0  0  0  0
   -2.7713   -1.6000    0.0000 C   0  0  0  0  0  0  0  0  0  0  0  0
    0.0000    0.0000    0.0000 C   0  0  0  0  0  0  0  0  0  0  0  0
   -1.3856   -2.4000    0.0000 C   0  0  0  0  0  0  0  0  0  0  0  0
    0.0000   -1.6000    0.0000 C   0  0  0  0  0  0  0  0  0  0  0  0
    1.3856    2.4000    0.0000 C   0  0  0  0  0  0  0  0  0  0  0  0
  1 11  2  0  0  0  0
  2 19  1  0  0  0  0
  2 22  1  0  0  0  0
  3 21  1  0  0  0  0
  4 11  1  0  0  0  0
  4 13  1  0  0  0  0
  5  6  1  0  0  0  0
  5  7  1  0  0  0  0
  6  8  1  0  0  0  0
  7 10  1  0  0  0  0
  8 11  1  0  0  0  0
  9 12  1  0  0  0  0
  9 15  1  0  0  0  0
  9 16  1  0  0  0  0
 10 12  2  0  0  0  0
 13 14  1  0  0  0  0
 14 17  2  0  0  0  0
 14 18  1  0  0  0  0
 17 19  1  0  0  0  0
 18 20  2  0  0  0  0
 19 21  2  0  0  0  0
 20 21  1  0  0  0  0
M  END
> <Acceptable>
false

> <IC50>
17.45

$$$$

Generated by Molecular Materials Informatics

 14 14  0  0  0  0  0  0  0  0999 V2000
   -5.5122   -0.5794    0.0000 S   0  0  0  0  0  0  0  0  0  0  0  0
   -1.6289    2.2420    0.0000 O   0  0  0  0  0  0  0  0  0  0  0  0
    0.2585    3.3317    0.0000 O   0  0  0  0  0  0  0  0  0  0  0  0
    3.0146    3.0420    0.0000 O   0  0  0  0  0  0  0  0  0  0  0  0
    0.0000    0.0000    0.0000 N   0  0  0  0  0  0  0  0  0  0  0  0
    1.3856    0.8000    0.0000 C   0  0  0  0  0  0  0  0  0  0  0  0
    2.5747   -0.2706    0.0000 C   0  0  0  0  0  0  0  0  0  0  0  0
    1.9239   -1.7323    0.0000 C   0  0  0  0  0  0  0  0  0  0  0  0
    0.3327   -1.5650    0.0000 C   0  0  0  0  0  0  0  0  0  0  0  0
   -1.4617    0.6508    0.0000 C   0  0  0  0  0  0  0  0  0  0  0  0
   -2.7561   -0.2897    0.0000 C   0  0  0  0  0  0  0  0  0  0  0  0
    1.5529    2.3912    0.0000 C   0  0  0  0  0  0  0  0  0  0  0  0
   -4.2178    0.3611    0.0000 C   0  0  0  0  0  0  0  0  0  0  0  0
   -2.5889   -1.8809    0.0000 C   0  0  0  0  0  0  0  0  0  0  0  0
  1 13  1  0  0  0  0
  2 10  2  0  0  0  0
  3 12  1  0  0  0  0
  4 12  2  0  0  0  0
  5  6  1  0  0  0  0
  5  9  1  0  0  0  0
  5 10  1  0  0  0  0
  6  7  1  0  0  0  0
  6 12  1  6  0  0  0
  7  8  1  0  0  0  0
  8  9  1  0  0  0  0
 10 11  1  0  0  0  0
 11 13  1  0  0  0  0
 11 14  1  6  0  0  0
M  END
> <Acceptable>
true

> <IC50>
>1150

$$$$

Generated by Molecular Materials Informatics

 18 20  0  0  0  0  0  0  0  0999 V2000
    0.8169    2.6482    0.0000 O   0  0  0  0  0  0  0  0  0  0  0  0
   -0.3560    1.5599    0.0000 C   0  0  0  0  0  0  0  0  0  0  0  0
   -1.8849    2.0315    0.0000 N   0  0  0  0  0  0  0  0  0  0  0  0
    0.0000    0.0000    0.0000 N   0  0  0  0  0  0  0  0  0  0  0  0
   -1.2509   -0.9976    0.0000 C   0  0  0  0  0  0  0  0  0  0  0  0
   -2.6366   -0.1976    0.0000 C   0  0  0  0  0  0  0  0  0  0  0  0
   -4.0222   -0.9976    0.0000 C   0  0  0  0  0  0  0  0  0  0  0  0
   -4.0222   -2.5976    0.0000 C   0  0  0  0  0  0  0  0  0  0  0  0
   -2.6366   -3.3976    0.0000 C   0  0  0  0  0  0  0  0  0  0  0  0
   -1.2509   -2.5976    0.0000 C   0  0  0  0  0  0  0  0  0  0  0  0
    0.0000   -3.5952    0.0000 C   0  0  0  0  0  0  0  0  0  0  0  0
    1.5599   -3.2391    0.0000 C   0  0  0  0  0  0  0  0  0  0  0  0
    2.2541   -1.7976    0.0000 C   0  0  0  0  0  0  0  0  0  0  0  0
    3.8496   -1.9172    0.0000 C   0  0  0  0  0  0  0  0  0  0  0  0
    4.7509   -0.5952    0.0000 C   0  0  0  0  0  0  0  0  0  0  0  0
    4.0567    0.8464    0.0000 C   0  0  0  0  0  0  0  0  0  0  0  0
    2.4612    0.9659    0.0000 C   0  0  0  0  0  0  0  0  0  0  0  0
    1.5599   -0.3560    0.0000 C   0  0  0  0  0  0  0  0  0  0  0  0
  1  2  2  0  0  0  0
  2  3  1  0  0  0  0
  2  4  1  0  0  0  0
  4  5  1  0  0  0  0
  4 18  1  0  0  0  0
  5  6  1  0  0  0  0
  5 10  2  0  0  0  0
  6  7  2  0  0  0  0
  7  8  1  0  0  0  0
  8  9  2  0  0  0  0
  9 10  1  0  0  0  0
 10 11  1  0  0  0  0
 11 12  2  0  0  0  0
 12 13  1  0  0  0  0
 13 14  1  0  0  0  0
 13 18  2  0  0  0  0
 14 15  2  0  0  0  0
 15 16  1  0  0  0  0
 16 17  2  0  0  0  0
 17 18  1  0  0  0  0
M  END
> <Acceptable>
true

> <IC50>
2999.9

$$$$

Generated by Molecular Materials Informatics

 18 17  0  0  0  0  0  0  0  0999 V2000
   -4.1569   -2.4000    0.0000 O   0  0  0  0  0  0  0  0  0  0  0  0
   -2.7713   -3.2000    0.0000 C   0  0  0  0  0  0  0  0  0  0  0  0
   -1.3856   -2.4000    0.0000 O   0  0  0  0  0  0  0  0  0  0  0  0
   -1.3856   -0.8000    0.0000 C   0  0  0  0  0  0  0  0  0  0  0  0
    0.0000    0.0000    0.0000 C   0  0  0  0  0  0  0  0  0  0  0  0
    0.0000   -1.6000    0.0000 C   0  0  0  0  0  0  0  0  0  0  0  0
    1.3856    0.8000    0.0000 C   0  0  0  0  0  0  0  0  0  0  0  0
    2.7713    0.0000    0.0000 O   0  0  0  0  0  0  0  0  0  0  0  0
    4.1569    0.8000    0.0000 C   0  0  0  0  0  0  0  0  0  0  0  0
    4.1569    2.4000    0.0000 O   0  0  0  0  0  0  0  0  0  0  0  0
    5.5426    0.0000    0.0000 N   0  0  0  0  0  0  0  0  0  0  0  0
    6.9282    0.8000    0.0000 C   0  0  0  0  0  0  0  0  0  0  0  0
    6.9282    2.4000    0.0000 C   0  0  0  0  0  0  0  0  0  0  0  0
    8.3138    0.0000    0.0000 C   0  0  0  0  0  0  0  0  0  0  0  0
   -1.3856    0.8000    0.0000 C   0  0  0  0  0  0  0  0  0  0  0  0
   -1.3856    2.4000    0.0000 C   0  0  0  0  0  0  0  0  0  0  0  0
   -2.7713    3.2000    0.0000 C   0  0  0  0  0  0  0  0  0  0  0  0
   -2.7713   -4.8000    0.0000 N   0  0  0  0  0  0  0  0  0  0  0  0
  1  2  2  0  0  0  0
  2  3  1  0  0  0  0
  2 18  1  0  0  0  0
  3  4  1  0  0  0  0
  4  5  1  0  0  0  0
  5  6  1  1  0  0  0
  5  7  1  0  0  0  0
  5 15  1  0  0  0  0
  7  8  1  0  0  0  0
  8  9  1  0  0  0  0
  9 10  2  0  0  0  0
  9 11  1  0  0  0  0
 11 12  1  0  0  0  0
 12 13  1  0  0  0  0
 12 14  1  0  0  0  0
 15 16  1  0  0  0  0
 16 17  1  0  0  0  0
M  END
> <Acceptable>
true

> <IC50>
N/A

$$$$

Generated by Molecular Materials Informatics

 21 22  0  0  0  0  0  0  0  0999 V2000
   -4.1569    2.4000    0.0000 O   0  0  0  0  0  0  0  0  0  0  0  0
   -2.7713    1.6000    0.0000 C   0  0  0  0  0  0  0  0  0  0  0  0
   -2.7713    0.0000    0.0000 N   0  0  0  0  0  0  0  0  0  0  0  0
   -1.3856   -0.8000    0.0000 C   0  0  0  0  0  0  0  0  0  0  0  0
   -1.3856   -2.4000    0.0000 C   0  0  0  0  0  0  0  0  0  0  0  0
    0.0000   -3.2000    0.0000 C   0  0  0  0  0  0  0  0  0  0  0  0
    1.3856   -2.4000    0.0000 C   0  0  0  0  0  0  0  0  0  0  0  0
    1.3856   -0.8000    0.0000 C   0  0  0  0  0  0  0  0  0  0  0  0
    2.7713    0.0000    0.0000 O   0  0  0  0  0  0  0  0  0  0  0  0
    4.1569   -0.8000    0.0000 C   0  0  0  0  0  0  0  0  0  0  0  0
    5.5426    0.0000    0.0000 C   0  0  0  0  0  0  0  0  0  0  0  0
    5.5426    1.6000    0.0000 O   0  0  0  0  0  0  0  0  0  0  0  0
    6.9282   -0.8000    0.0000 C   0  0  0  0  0  0  0  0  0  0  0  0
    8.3138    0.0000    0.0000 N   0  0  0  0  0  0  0  0  0  0  0  0
    9.6995   -0.8000    0.0000 C   0  0  0  0  0  0  0  0  0  0  0  0
    9.6995   -2.4000    0.0000 C   0  0  0  0  0  0  0  0  0  0  0  0
   11.0851    0.0000    0.0000 C   0  0  0  0  0  0  0  0  0  0  0  0
   11.0851   -1.6000    0.0000 C   0  0  0  0  0  0  0  0  0  0  0  0
    0.0000    0.0000    0.0000 C   0  0  0  0  0  0  0  0  0  0  0  0
    0.0000    1.6000    0.0000 C   0  0  0  0  0  0  0  0  0  0  0  0
   -1.3856    2.4000    0.0000 C   0  0  0  0  0  0  0  0  0  0  0  0
  1  2  2  0  0  0  0
  2  3  1  0  0  0  0
  2 21  1  0  0  0  0
  3  4  1  0  0  0  0
  4  5  1  0  0  0  0
  4 19  2  0  0  0  0
  5  6  2  0  0  0  0
  6  7  1  0  0  0  0
  7  8  2  0  0  0  0
  8  9  1  0  0  0  0
  8 19  1  0  0  0  0
  9 10  1  0  0  0  0
 10 11  1  0  0  0  0
 11 12  1  6  0  0  0
 11 13  1  0  0  0  0
 13 14  1  0  0  0  0
 14 15  1  0  0  0  0
 15 16  1  0  0  0  0
 15 17  1  0  0  0  0
 15 18  1  0  0  0  0
 19 20  1  0  0  0  0
 20 21  1  0  0  0  0
M  END
> <Acceptable>
true

> <IC50>
N/A

$$$$

Generated by Molecular Materials Informatics

 30 33  0  0  0  0  0  0  0  0999 V2000
    5.5426    1.6000    0.0000 O   0  0  0  0  0  0  0  0  0  0  0  0
    5.5426    0.0000    0.0000 C   0  0  0  0  0  0  0  0  0  0  0  0
    4.1569   -0.8000    0.0000 C   0  0  0  0  0  0  0  0  0  0  0  0
    2.7713    0.0000    0.0000 O   0  0  0  0  0  0  0  0  0  0  0  0
    1.3856   -0.8000    0.0000 C   0  0  0  0  0  0  0  0  0  0  0  0
    1.3856   -2.4000    0.0000 C   0  0  0  0  0  0  0  0  0  0  0  0
    0.0000   -3.2000    0.0000 C   0  0  0  0  0  0  0  0  0  0  0  0
   -1.3856   -2.4000    0.0000 C   0  0  0  0  0  0  0  0  0  0  0  0
   -1.3856   -0.8000    0.0000 C   0  0  0  0  0  0  0  0  0  0  0  0
   -2.5747    0.2706    0.0000 N   0  0  0  0  0  0  0  0  0  0  0  0
   -1.9239    1.7323    0.0000 C   0  0  0  0  0  0  0  0  0  0  0  0
   -2.5747    3.1940    0.0000 C   0  0  0  0  0  0  0  0  0  0  0  0
   -1.6342    4.4884    0.0000 C   0  0  0  0  0  0  0  0  0  0  0  0
   -0.0430    4.3211    0.0000 C   0  0  0  0  0  0  0  0  0  0  0  0
    0.6078    2.8595    0.0000 C   0  0  0  0  0  0  0  0  0  0  0  0
   -0.3327    1.5650    0.0000 C   0  0  0  0  0  0  0  0  0  0  0  0
    0.0000    0.0000    0.0000 C   0  0  0  0  0  0  0  0  0  0  0  0
    6.9282   -0.8000    0.0000 C   0  0  0  0  0  0  0  0  0  0  0  0
    8.3138    0.0000    0.0000 N   0  0  0  0  0  0  0  0  0  0  0  0
    9.6995   -0.8000    0.0000 C   0  0  0  0  0  0  0  0  0  0  0  0
   11.0851    0.0000    0.0000 C   0  0  0  0  0  0  0  0  0  0  0  0
   12.4708   -0.8000    0.0000 O   0  0  0  0  0  0  0  0  0  0  0  0
   13.8564    0.0000    0.0000 C   0  0  0  0  0  0  0  0  0  0  0  0
   13.8564    1.6000    0.0000 C   0  0  0  0  0  0  0  0  0  0  0  0
   15.2420    2.4000    0.0000 C   0  0  0  0  0  0  0  0  0  0  0  0
   16.6277    1.6000    0.0000 C   0  0  0  0  0  0  0  0  0  0  0  0
   16.6277    0.0000    0.0000 C   0  0  0  0  0  0  0  0  0  0  0  0
   15.2420   -0.8000    0.0000 C   0  0  0  0  0  0  0  0  0  0  0  0
   15.2421   -2.4000    0.0000 O   0  0  0  0  0  0  0  0  0  0  0  0
   16.6277   -3.2000    0.0000 C   0  0  0  0  0  0  0  0  0  0  0  0
  2  1  1  1  0  0  0
  2  3  1  0  0  0  0
  2 18  1  0  0  0  0
  3  4  1  0  0  0  0
  4  5  1  0  0  0  0
  5  6  2  0  0  0  0
  5 17  1  0  0  0  0
  6  7  1  0  0  0  0
  7  8  2  0  0  0  0
  8  9  1  0  0  0  0
  9 10  2  0  0  0  0
 17  9  1  6  0  0  0
 10 11  1  0  0  0  0
 11 12  1  0  0  0  0
 11 16  2  0  0  0  0
 12 13  2  0  0  0  0
 13 14  1  0  0  0  0
 14 15  2  0  0  0  0
 15 16  1  0  0  0  0
 16 17  1  0  0  0  0
 18 19  1  0  0  0  0
 19 20  1  0  0  0  0
 20 21  1  0  0  0  0
 21 22  1  0  0  0  0
 22 23  1  0  0  0  0
 23 24  1  0  0  0  0
 23 28  2  0  0  0  0
 24 25  2  0  0  0  0
 25 26  1  0  0  0  0
 26 27  2  0  0  0  0
 27 28  1  0  0  0  0
 28 29  1  0  0  0  0
 29 30  1  0  0  0  0
M  END
> <Acceptable>
false

> <IC50>
10.42

$$$$

Generated by Molecular Materials Informatics

 30 33  0  0  0  0  0  0  0  0999 V2000
    0.0000    0.0000    0.0000 C   0  0  0  0  0  0  0  0  0  0  0  0
   -0.3327    1.5650    0.0000 C   0  0  0  0  0  0  0  0  0  0  0  0
   -1.3856   -0.8000    0.0000 C   0  0  0  0  0  0  0  0  0  0  0  0
    1.3856   -0.8000    0.0000 C   0  0  0  0  0  0  0  0  0  0  0  0
   -1.9239    1.7323    0.0000 C   0  0  0  0  0  0  0  0  0  0  0  0
    0.6078    2.8595    0.0000 C   0  0  0  0  0  0  0  0  0  0  0  0
   -2.5747    0.2706    0.0000 N   0  0  0  0  0  0  0  0  0  0  0  0
   -1.3856   -2.4000    0.0000 C   0  0  0  0  0  0  0  0  0  0  0  0
    1.3856   -2.4000    0.0000 C   0  0  0  0  0  0  0  0  0  0  0  0
    2.7713    0.0000    0.0000 O   0  0  0  0  0  0  0  0  0  0  0  0
   -2.5747    3.1940    0.0000 C   0  0  0  0  0  0  0  0  0  0  0  0
   -0.0430    4.3211    0.0000 C   0  0  0  0  0  0  0  0  0  0  0  0
    0.0000   -3.2000    0.0000 C   0  0  0  0  0  0  0  0  0  0  0  0
    4.1569   -0.8000    0.0000 C   0  0  0  0  0  0  0  0  0  0  0  0
   -1.6342    4.4884    0.0000 C   0  0  0  0  0  0  0  0  0  0  0  0
    5.5426    0.0000    0.0000 C   0  0  0  0  0  0  0  0  0  0  0  0
    6.9282   -0.8000    0.0000 C   0  0  0  0  0  0  0  0  0  0  0  0
    5.5426    1.6000    0.0000 O   0  0  0  0  0  0  0  0  0  0  0  0
    8.3138    0.0000    0.0000 N   0  0  0  0  0  0  0  0  0  0  0  0
    9.6995   -0.8000    0.0000 C   0  0  0  0  0  0  0  0  0  0  0  0
   11.0851    0.0000    0.0000 C   0  0  0  0  0  0  0  0  0  0  0  0
   12.4708   -0.8000    0.0000 O   0  0  0  0  0  0  0  0  0  0  0  0
   13.8564    0.0000    0.0000 C   0  0  0  0  0  0  0  0  0  0  0  0
   13.8564    1.6000    0.0000 C   0  0  0  0  0  0  0  0  0  0  0  0
   15.2420   -0.8000    0.0000 C   0  0  0  0  0  0  0  0  0  0  0  0
   15.2420    2.4000    0.0000 C   0  0  0  0  0  0  0  0  0  0  0  0
   12.4708    2.4000    0.0000 O   0  0  0  0  0  0  0  0  0  0  0  0
   16.6277    0.0000    0.0000 C   0  0  0  0  0  0  0  0  0  0  0  0
   16.6277    1.6000    0.0000 C   0  0  0  0  0  0  0  0  0  0  0  0
   12.4708    4.0000    0.0000 C   0  0  0  0  0  0  0  0  0  0  0  0
  1  2  1  0  0  0  0
  1  3  2  0  0  0  0
  1  4  1  0  0  0  0
  2  5  2  0  0  0  0
  2  6  1  0  0  0  0
  3  7  1  0  0  0  0
  3  8  1  0  0  0  0
  4  9  2  0  0  0  0
  4 10  1  0  0  0  0
  5  7  1  0  0  0  0
  5 11  1  0  0  0  0
  6 12  2  0  0  0  0
  8 13  2  0  0  0  0
  9 13  1  0  0  0  0
 10 14  1  0  0  0  0
 11 15  2  0  0  0  0
 12 15  1  0  0  0  0
 14 16  1  0  0  0  0
 16 17  1  0  0  0  0
 16 18  1  1  0  0  0
 17 19  1  0  0  0  0
 19 20  1  0  0  0  0
 20 21  1  0  0  0  0
 21 22  1  0  0  0  0
 22 23  1  0  0  0  0
 23 24  2  0  0  0  0
 23 25  1  0  0  0  0
 24 26  1  0  0  0  0
 24 27  1  0  0  0  0
 25 28  2  0  0  0  0
 26 29  2  0  0  0  0
 27 30  1  0  0  0  0
 28 29  1  0  0  0  0
M  END
> <Acceptable>
false

> <IC50>
0.51

$$$$

Generated by Molecular Materials Informatics

 26 28  0  0  0  0  0  0  0  0999 V2000
   -5.8467    2.6031    0.0000 S   0  0  0  0  0  0  0  0  0  0  0  0
   -6.4975    1.1414    0.0000 O   0  0  0  0  0  0  0  0  0  0  0  0
   -5.1959    4.0648    0.0000 O   0  0  0  0  0  0  0  0  0  0  0  0
   -7.3084    3.2539    0.0000 N   0  0  0  0  0  0  0  0  0  0  0  0
   -4.3850    1.9523    0.0000 C   0  0  0  0  0  0  0  0  0  0  0  0
   -3.0906    2.8928    0.0000 C   0  0  0  0  0  0  0  0  0  0  0  0
   -1.6289    2.2420    0.0000 C   0  0  0  0  0  0  0  0  0  0  0  0
   -1.4617    0.6508    0.0000 C   0  0  0  0  0  0  0  0  0  0  0  0
    0.0000    0.0000    0.0000 N   0  0  0  0  0  0  0  0  0  0  0  0
    1.3856    0.8000    0.0000 N   0  0  0  0  0  0  0  0  0  0  0  0
    2.5747   -0.2706    0.0000 C   0  0  0  0  0  0  0  0  0  0  0  0
    1.9239   -1.7323    0.0000 C   0  0  0  0  0  0  0  0  0  0  0  0
    0.3327   -1.5650    0.0000 C   0  0  0  0  0  0  0  0  0  0  0  0
   -0.7379   -2.7541    0.0000 C   0  0  0  0  0  0  0  0  0  0  0  0
   -0.2435   -4.2758    0.0000 C   0  0  0  0  0  0  0  0  0  0  0  0
   -1.3141   -5.4648    0.0000 C   0  0  0  0  0  0  0  0  0  0  0  0
   -2.8792   -5.1321    0.0000 C   0  0  0  0  0  0  0  0  0  0  0  0
   -3.9498   -6.3212    0.0000 C   0  0  0  0  0  0  0  0  0  0  0  0
   -3.3736   -3.6104    0.0000 C   0  0  0  0  0  0  0  0  0  0  0  0
   -2.3030   -2.4214    0.0000 C   0  0  0  0  0  0  0  0  0  0  0  0
    4.1397    0.0621    0.0000 C   0  0  0  0  0  0  0  0  0  0  0  0
    4.6341    1.5837    0.0000 F   0  0  0  0  0  0  0  0  0  0  0  0
    5.2103   -1.1270    0.0000 F   0  0  0  0  0  0  0  0  0  0  0  0
    5.7047    0.3947    0.0000 F   0  0  0  0  0  0  0  0  0  0  0  0
   -2.7561   -0.2897    0.0000 C   0  0  0  0  0  0  0  0  0  0  0  0
   -4.2178    0.3611    0.0000 C   0  0  0  0  0  0  0  0  0  0  0  0
  1  2  2  0  0  0  0
  1  3  2  0  0  0  0
  1  4  1  0  0  0  0
  1  5  1  0  0  0  0
  5  6  1  0  0  0  0
  5 26  2  0  0  0  0
  6  7  2  0  0  0  0
  7  8  1  0  0  0  0
  8  9  1  0  0  0  0
  8 25  2  0  0  0  0
  9 10  1  0  0  0  0
  9 13  1  0  0  0  0
 10 11  2  0  0  0  0
 11 12  1  0  0  0  0
 11 21  1  0  0  0  0
 12 13  2  0  0  0  0
 13 14  1  0  0  0  0
 14 15  1  0  0  0  0
 14 20  2  0  0  0  0
 15 16  2  0  0  0  0
 16 17  1  0  0  0  0
 17 18  1  0  0  0  0
 17 19  2  0  0  0  0
 19 20  1  0  0  0  0
 21 22  1  0  0  0  0
 21 23  1  0  0  0  0
 21 24  1  0  0  0  0
 25 26  1  0  0  0  0
M  END
> <Acceptable>
true

> <IC50>
10

$$$$

Generated by Molecular Materials Informatics

 33 34  0  0  0  0  0  0  0  0999 V2000
    0.0000    6.4000    0.0000 F   0  0  0  0  0  0  0  0  0  0  0  0
    0.0000    4.8000    0.0000 C   0  0  0  0  0  0  0  0  0  0  0  0
    1.3856    4.0000    0.0000 C   0  0  0  0  0  0  0  0  0  0  0  0
    1.3856    2.4000    0.0000 C   0  0  0  0  0  0  0  0  0  0  0  0
    0.0000    1.6000    0.0000 C   0  0  0  0  0  0  0  0  0  0  0  0
   -1.3856    2.4000    0.0000 C   0  0  0  0  0  0  0  0  0  0  0  0
   -1.3856    4.0000    0.0000 C   0  0  0  0  0  0  0  0  0  0  0  0
    0.0000    0.0000    0.0000 C   0  0  0  0  0  0  0  0  0  0  0  0
    1.3856   -0.8000    0.0000 C   0  0  0  0  0  0  0  0  0  0  0  0
    2.7713    0.0000    0.0000 C   0  0  0  0  0  0  0  0  0  0  0  0
    4.1569   -0.8000    0.0000 C   0  0  0  0  0  0  0  0  0  0  0  0
    5.5426    0.0000    0.0000 C   0  0  0  0  0  0  0  0  0  0  0  0
    5.5426    1.6000    0.0000 O   0  0  0  0  0  0  0  0  0  0  0  0
    6.9282   -0.8000    0.0000 C   0  0  0  0  0  0  0  0  0  0  0  0
    8.3138    0.0000    0.0000 C   0  0  0  0  0  0  0  0  0  0  0  0
    8.3138    1.6000    0.0000 O   0  0  0  0  0  0  0  0  0  0  0  0
    9.6995   -0.8000    0.0000 C   0  0  0  0  0  0  0  0  0  0  0  0
   11.0851    0.0000    0.0000 C   0  0  0  0  0  0  0  0  0  0  0  0
   11.0851    1.6000    0.0000 O   0  0  0  0  0  0  0  0  0  0  0  0
   12.4708   -0.8000    0.0000 O   0  0  0  0  0  0  0  0  0  0  0  0
    1.3856   -2.4000    0.0000 C   0  0  0  0  0  0  0  0  0  0  0  0
    0.0000   -3.2000    0.0000 N   0  0  0  0  0  0  0  0  0  0  0  0
   -1.3856   -2.4000    0.0000 C   0  0  0  0  0  0  0  0  0  0  0  0
   -1.3856   -0.8000    0.0000 C   0  0  0  0  0  0  0  0  0  0  0  0
   -2.7713    0.0000    0.0000 C   0  0  0  0  0  0  0  0  0  0  0  0
   -4.1569   -0.8000    0.0000 O   0  0  0  0  0  0  0  0  0  0  0  0
   -5.5426    0.0000    0.0000 C   0  0  0  0  0  0  0  0  0  0  0  0
   -2.7713   -3.2000    0.0000 C   0  0  0  0  0  0  0  0  0  0  0  0
   -4.1569   -2.4000    0.0000 C   0  0  0  0  0  0  0  0  0  0  0  0
   -2.7713   -4.8000    0.0000 C   0  0  0  0  0  0  0  0  0  0  0  0
    2.7713   -3.2000    0.0000 C   0  0  0  0  0  0  0  0  0  0  0  0
    4.1569   -2.4000    0.0000 C   0  0  0  0  0  0  0  0  0  0  0  0
    2.7713   -4.8000    0.0000 C   0  0  0  0  0  0  0  0  0  0  0  0
  1  2  1  0  0  0  0
  2  3  1  0  0  0  0
  2  7  2  0  0  0  0
  3  4  2  0  0  0  0
  4  5  1  0  0  0  0
  5  6  2  0  0  0  0
  5  8  1  0  0  0  0
  6  7  1  0  0  0  0
  8  9  1  0  0  0  0
  8 24  2  0  0  0  0
  9 10  1  0  0  0  0
  9 21  2  0  0  0  0
 10 11  2  0  0  0  0
 11 12  1  0  0  0  0
 12 13  1  1  0  0  0
 12 14  1  0  0  0  0
 14 15  1  0  0  0  0
 15 16  1  1  0  0  0
 15 17  1  0  0  0  0
 17 18  1  0  0  0  0
 18 19  2  0  0  0  0
 18 20  1  0  0  0  0
 21 22  1  0  0  0  0
 21 31  1  0  0  0  0
 22 23  2  0  0  0  0
 23 24  1  0  0  0  0
 23 28  1  0  0  0  0
 24 25  1  0  0  0  0
 25 26  1  0  0  0  0
 26 27  1  0  0  0  0
 28 29  1  0  0  0  0
 28 30  1  0  0  0  0
 31 32  1  0  0  0  0
 31 33  1  0  0  0  0
M  END
> <Acceptable>
true

> <IC50>
N/A

$$$$

Generated by Molecular Materials Informatics

 27 29  0  0  0  0  0  0  0  0999 V2000
   -5.5426   -3.2000    0.0000 Cl  0  0  0  0  0  0  0  0  0  0  0  0
   -4.1569   -2.4000    0.0000 C   0  0  0  0  0  0  0  0  0  0  0  0
   -2.7713   -3.2000    0.0000 C   0  0  0  0  0  0  0  0  0  0  0  0
   -1.3856   -2.4000    0.0000 C   0  0  0  0  0  0  0  0  0  0  0  0
   -1.3856   -0.8000    0.0000 C   0  0  0  0  0  0  0  0  0  0  0  0
   -2.7713    0.0000    0.0000 C   0  0  0  0  0  0  0  0  0  0  0  0
   -4.1569   -0.8000    0.0000 C   0  0  0  0  0  0  0  0  0  0  0  0
    0.0000    0.0000    0.0000 C   0  0  0  0  0  0  0  0  0  0  0  0
    1.3856   -0.8000    0.0000 N   0  0  0  0  0  0  0  0  0  0  0  0
    1.3856   -2.4000    0.0000 C   0  0  0  0  0  0  0  0  0  0  0  0
    2.7713   -3.2000    0.0000 C   0  0  0  0  0  0  0  0  0  0  0  0
    4.1569   -2.4000    0.0000 N   0  0  0  0  0  0  0  0  0  0  0  0
    4.1569   -0.8000    0.0000 C   0  0  0  0  0  0  0  0  0  0  0  0
    2.7713    0.0000    0.0000 C   0  0  0  0  0  0  0  0  0  0  0  0
    5.5426   -3.2000    0.0000 C   0  0  0  0  0  0  0  0  0  0  0  0
    6.9282   -2.4000    0.0000 C   0  0  0  0  0  0  0  0  0  0  0  0
    8.3138   -3.2000    0.0000 O   0  0  0  0  0  0  0  0  0  0  0  0
    9.6995   -2.4000    0.0000 C   0  0  0  0  0  0  0  0  0  0  0  0
   11.0851   -3.2000    0.0000 C   0  0  0  0  0  0  0  0  0  0  0  0
   11.0851   -4.8000    0.0000 O   0  0  0  0  0  0  0  0  0  0  0  0
   12.4708   -2.4000    0.0000 O   0  0  0  0  0  0  0  0  0  0  0  0
    0.0000    1.6000    0.0000 C   0  0  0  0  0  0  0  0  0  0  0  0
    1.3856    2.4000    0.0000 C   0  0  0  0  0  0  0  0  0  0  0  0
    1.3856    4.0000    0.0000 C   0  0  0  0  0  0  0  0  0  0  0  0
    0.0000    4.8000    0.0000 C   0  0  0  0  0  0  0  0  0  0  0  0
   -1.3856    4.0000    0.0000 C   0  0  0  0  0  0  0  0  0  0  0  0
   -1.3856    2.4000    0.0000 C   0  0  0  0  0  0  0  0  0  0  0  0
  1  2  1  0  0  0  0
  2  3  1  0  0  0  0
  2  7  2  0  0  0  0
  3  4  2  0  0  0  0
  4  5  1  0  0  0  0
  5  6  2  0  0  0  0
  5  8  1  0  0  0  0
  6  7  1  0  0  0  0
  9  8  1  1  0  0  0
  8 22  1  0  0  0  0
  9 10  1  0  0  0  0
  9 14  1  0  0  0  0
 10 11  1  0  0  0  0
 11 12  1  0  0  0  0
 12 13  1  0  0  0  0
 12 15  1  6  0  0  0
 13 14  1  0  0  0  0
 15 16  1  0  0  0  0
 16 17  1  0  0  0  0
 17 18  1  0  0  0  0
 18 19  1  0  0  0  0
 19 20  2  0  0  0  0
 19 21  1  0  0  0  0
 22 23  1  0  0  0  0
 22 27  2  0  0  0  0
 23 24  2  0  0  0  0
 24 25  1  0  0  0  0
 25 26  2  0  0  0  0
 26 27  1  0  0  0  0
M  END
> <Acceptable>
false

> <IC50>
30

$$$$

Generated by Molecular Materials Informatics

 13 15  0  0  0  0  0  0  0  0999 V2000
   -1.7323    1.9239    0.0000 S   0  0  0  0  0  0  0  0  0  0  0  0
   -0.1672    1.5912    0.0000 C   0  0  0  0  0  0  0  0  0  0  0  0
    0.0000    0.0000    0.0000 C   0  0  0  0  0  0  0  0  0  0  0  0
   -1.4617   -0.6508    0.0000 O   0  0  0  0  0  0  0  0  0  0  0  0
   -2.5323    0.5383    0.0000 C   0  0  0  0  0  0  0  0  0  0  0  0
   -4.1235    0.3710    0.0000 C   0  0  0  0  0  0  0  0  0  0  0  0
    1.3856    0.8000    0.0000 C   0  0  0  0  0  0  0  0  0  0  0  0
    2.7713    0.0000    0.0000 N   0  0  0  0  0  0  0  0  0  0  0  0
    2.7713   -1.6000    0.0000 C   0  0  0  0  0  0  0  0  0  0  0  0
    1.3856   -2.4000    0.0000 C   0  0  0  0  0  0  0  0  0  0  0  0
    0.0000   -1.6000    0.0000 C   0  0  0  0  0  0  0  0  0  0  0  0
    1.1977   -1.6745    0.0000 C   0  0  0  0  0  0  0  0  0  0  0  0
    2.2369   -1.0745    0.0000 C   0  0  0  0  0  0  0  0  0  0  0  0
  1  2  1  0  0  0  0
  1  5  1  0  0  0  0
  3  2  1  6  0  0  0
  3  4  1  0  0  0  0
  3  7  1  0  0  0  0
  3 11  1  0  0  0  0
  4  5  1  0  0  0  0
  5  6  1  1  0  0  0
  7  8  1  0  0  0  0
  8  9  1  0  0  0  0
  8 13  1  6  0  0  0
  9 10  1  0  0  0  0
 11 10  1  1  0  0  0
 11 12  1  0  0  0  0
 12 13  1  0  0  0  0
M  END
> <Acceptable>
true

> <IC50>
N/A

$$$$

Generated by Molecular Materials Informatics

 19 19  0  0  0  0  0  0  0  0999 V2000
   -4.8000    2.7713    0.0000 Cl  0  0  0  0  0  0  0  0  0  0  0  0
   -4.0000    1.3856    0.0000 C   0  0  0  0  0  0  0  0  0  0  0  0
   -2.4000    1.3856    0.0000 C   0  0  0  0  0  0  0  0  0  0  0  0
   -1.6000    0.0000    0.0000 N   0  0  0  0  0  0  0  0  0  0  0  0
   -2.4000   -1.3856    0.0000 C   0  0  0  0  0  0  0  0  0  0  0  0
   -4.0000   -1.3856    0.0000 C   0  0  0  0  0  0  0  0  0  0  0  0
   -4.8000   -2.7713    0.0000 Cl  0  0  0  0  0  0  0  0  0  0  0  0
    0.0000    0.0000    0.0000 C   0  0  0  0  0  0  0  0  0  0  0  0
    0.8000   -1.3856    0.0000 C   0  0  0  0  0  0  0  0  0  0  0  0
    2.4000   -1.3856    0.0000 C   0  0  0  0  0  0  0  0  0  0  0  0
    3.2000    0.0000    0.0000 C   0  0  0  0  0  0  0  0  0  0  0  0
    2.4000    1.3856    0.0000 C   0  0  0  0  0  0  0  0  0  0  0  0
    0.8000    1.3856    0.0000 C   0  0  0  0  0  0  0  0  0  0  0  0
    4.8000    0.0000    0.0000 C   0  0  0  0  0  0  0  0  0  0  0  0
    5.6000   -1.3856    0.0000 C   0  0  0  0  0  0  0  0  0  0  0  0
    7.2000   -1.3856    0.0000 C   0  0  0  0  0  0  0  0  0  0  0  0
    8.0000   -2.7713    0.0000 C   0  0  0  0  0  0  0  0  0  0  0  0
    7.2000   -4.1569    0.0000 O   0  0  0  0  0  0  0  0  0  0  0  0
    9.6000   -2.7713    0.0000 O   0  0  0  0  0  0  0  0  0  0  0  0
  1  2  1  0  0  0  0
  2  3  1  0  0  0  0
  3  4  1  0  0  0  0
  4  5  1  0  0  0  0
  4  8  1  0  0  0  0
  5  6  1  0  0  0  0
  6  7  1  0  0  0  0
  8  9  1  0  0  0  0
  8 13  2  0  0  0  0
  9 10  2  0  0  0  0
 10 11  1  0  0  0  0
 11 12  2  0  0  0  0
 11 14  1  0  0  0  0
 12 13  1  0  0  0  0
 14 15  1  0  0  0  0
 15 16  1  0  0  0  0
 16 17  1  0  0  0  0
 17 18  2  0  0  0  0
 17 19  1  0  0  0  0
M  END
> <Acceptable>
true

> <IC50>
N/A

$$$$

Generated by Molecular Materials Informatics

 21 23  0  0  0  0  0  0  0  0999 V2000
    2.5328   -4.7821    0.0000 Cl  0  0  0  0  0  0  0  0  0  0  0  0
    1.1472   -3.9821    0.0000 C   0  0  0  0  0  0  0  0  0  0  0  0
   -0.2385   -4.7821    0.0000 C   0  0  0  0  0  0  0  0  0  0  0  0
   -1.6241   -3.9821    0.0000 C   0  0  0  0  0  0  0  0  0  0  0  0
   -1.6241   -2.3821    0.0000 C   0  0  0  0  0  0  0  0  0  0  0  0
   -3.1135   -1.7976    0.0000 N   0  0  0  0  0  0  0  0  0  0  0  0
   -3.5851   -0.2687    0.0000 C   0  0  0  0  0  0  0  0  0  0  0  0
   -5.1672   -0.0302    0.0000 N   0  0  0  0  0  0  0  0  0  0  0  0
   -5.7518    1.4592    0.0000 C   0  0  0  0  0  0  0  0  0  0  0  0
   -2.6838    1.0533    0.0000 C   0  0  0  0  0  0  0  0  0  0  0  0
   -1.0883    1.1729    0.0000 N   0  3  0  0  0  0  0  0  0  0  0  0
   -0.5037    2.6623    0.0000 O   0  5  0  0  0  0  0  0  0  0  0  0
    0.0000    0.0000    0.0000 C   0  0  0  0  0  0  0  0  0  0  0  0
   -0.2385   -1.5821    0.0000 C   0  0  0  0  0  0  0  0  0  0  0  0
    1.1472   -2.3821    0.0000 C   0  0  0  0  0  0  0  0  0  0  0  0
    1.5289    0.4716    0.0000 C   0  0  0  0  0  0  0  0  0  0  0  0
    1.8849    2.0315    0.0000 C   0  0  0  0  0  0  0  0  0  0  0  0
    3.4139    2.5031    0.0000 C   0  0  0  0  0  0  0  0  0  0  0  0
    4.5867    1.4148    0.0000 C   0  0  0  0  0  0  0  0  0  0  0  0
    4.2307   -0.1451    0.0000 C   0  0  0  0  0  0  0  0  0  0  0  0
    2.7018   -0.6167    0.0000 C   0  0  0  0  0  0  0  0  0  0  0  0
  1  2  1  0  0  0  0
  2  3  1  0  0  0  0
  2 15  2  0  0  0  0
  3  4  2  0  0  0  0
  4  5  1  0  0  0  0
  5  6  1  0  0  0  0
  5 14  2  0  0  0  0
  6  7  2  0  0  0  0
  7  8  1  0  0  0  0
  7 10  1  0  0  0  0
  8  9  1  0  0  0  0
 10 11  1  0  0  0  0
 11 12  1  0  0  0  0
 11 13  2  0  0  0  0
 13 14  1  0  0  0  0
 13 16  1  0  0  0  0
 14 15  1  0  0  0  0
 16 17  1  0  0  0  0
 16 21  2  0  0  0  0
 17 18  2  0  0  0  0
 18 19  1  0  0  0  0
 19 20  2  0  0  0  0
 20 21  1  0  0  0  0
M  CHG  2  11   1  12  -1
M  END
> <Acceptable>
true

> <IC50>
N/A

$$$$

Generated by Molecular Materials Informatics

  8  7  0  0  0  0  0  0  0  0999 V2000
   -2.4000    1.3856    0.0000 Cl  0  0  0  0  0  0  0  0  0  0  0  0
   -2.4000   -1.3856    0.0000 Cl  0  0  0  0  0  0  0  0  0  0  0  0
   -3.2000    0.0000    0.0000 Cl  0  0  0  0  0  0  0  0  0  0  0  0
    0.8000    1.3856    0.0000 O   0  0  0  0  0  0  0  0  0  0  0  0
    0.0000    0.0000    0.0000 C   0  0  0  0  0  0  0  0  0  0  0  0
   -1.6000    0.0000    0.0000 C   0  0  0  0  0  0  0  0  0  0  0  0
    0.8000   -1.3856    0.0000 C   0  0  0  0  0  0  0  0  0  0  0  0
    1.6000    0.0000    0.0000 C   0  0  0  0  0  0  0  0  0  0  0  0
  1  6  1  0  0  0  0
  2  6  1  0  0  0  0
  3  6  1  0  0  0  0
  4  5  1  0  0  0  0
  5  6  1  0  0  0  0
  5  7  1  0  0  0  0
  5  8  1  0  0  0  0
M  END
> <Acceptable>
false

> <IC50>
4.37

$$$$

Generated by Molecular Materials Informatics

 19 20  0  0  0  0  0  0  0  0999 V2000
   -5.5426   -3.2000    0.0000 Cl  0  0  0  0  0  0  0  0  0  0  0  0
    1.3856    4.0000    0.0000 N   0  0  0  0  0  0  0  0  0  0  0  0
    1.3856   -2.4000    0.0000 N   0  0  0  0  0  0  0  0  0  0  0  0
    0.0000    0.0000    0.0000 C   0  0  0  0  0  0  0  0  0  0  0  0
    0.0000    1.6000    0.0000 C   0  0  0  0  0  0  0  0  0  0  0  0
    1.3856    2.4000    0.0000 C   0  0  0  0  0  0  0  0  0  0  0  0
   -1.3856   -0.8000    0.0000 C   0  0  0  0  0  0  0  0  0  0  0  0
    1.3856   -0.8000    0.0000 C   0  0  0  0  0  0  0  0  0  0  0  0
   -1.3856   -2.4000    0.0000 C   0  0  0  0  0  0  0  0  0  0  0  0
   -2.7713    0.0000    0.0000 C   0  0  0  0  0  0  0  0  0  0  0  0
    2.7713    0.0000    0.0000 C   0  0  0  0  0  0  0  0  0  0  0  0
    0.0000    4.8000    0.0000 C   0  0  0  0  0  0  0  0  0  0  0  0
    2.7713    4.8000    0.0000 C   0  0  0  0  0  0  0  0  0  0  0  0
   -2.7713   -3.2000    0.0000 C   0  0  0  0  0  0  0  0  0  0  0  0
   -4.1569   -0.8000    0.0000 C   0  0  0  0  0  0  0  0  0  0  0  0
    4.1569   -0.8000    0.0000 C   0  0  0  0  0  0  0  0  0  0  0  0
   -4.1569   -2.4000    0.0000 C   0  0  0  0  0  0  0  0  0  0  0  0
    2.7713   -3.2000    0.0000 C   0  0  0  0  0  0  0  0  0  0  0  0
    4.1569   -2.4000    0.0000 C   0  0  0  0  0  0  0  0  0  0  0  0
  1 17  1  0  0  0  0
  2  6  1  0  0  0  0
  2 12  1  0  0  0  0
  2 13  1  0  0  0  0
  3  8  2  0  0  0  0
  3 18  1  0  0  0  0
  4  5  1  0  0  0  0
  4  7  1  0  0  0  0
  4  8  1  6  0  0  0
  5  6  1  0  0  0  0
  7  9  2  0  0  0  0
  7 10  1  0  0  0  0
  8 11  1  0  0  0  0
  9 14  1  0  0  0  0
 10 15  2  0  0  0  0
 11 16  2  0  0  0  0
 14 17  2  0  0  0  0
 15 17  1  0  0  0  0
 16 19  1  0  0  0  0
 18 19  2  0  0  0  0
M  END
> <Acceptable>
false

> <IC50>
0.426

$$$$

Generated by Molecular Materials Informatics

 22 23  0  0  0  0  0  0  0  0999 V2000
   -4.1569    2.4000    0.0000 Cl  0  0  0  0  0  0  0  0  0  0  0  0
   -2.7713    1.6000    0.0000 C   0  0  0  0  0  0  0  0  0  0  0  0
   -1.3856    2.4000    0.0000 C   0  0  0  0  0  0  0  0  0  0  0  0
    0.0000    1.6000    0.0000 C   0  0  0  0  0  0  0  0  0  0  0  0
    0.0000    0.0000    0.0000 C   0  0  0  0  0  0  0  0  0  0  0  0
   -1.3856   -0.8000    0.0000 C   0  0  0  0  0  0  0  0  0  0  0  0
   -1.3856   -2.4000    0.0000 N   0  0  0  0  0  0  0  0  0  0  0  0
    0.0000   -3.2000    0.0000 C   0  0  0  0  0  0  0  0  0  0  0  0
    1.3856   -2.4000    0.0000 C   0  0  0  0  0  0  0  0  0  0  0  0
    1.3856   -0.8000    0.0000 C   0  0  0  0  0  0  0  0  0  0  0  0
    2.7713    0.0000    0.0000 N   0  0  0  0  0  0  0  0  0  0  0  0
    4.1569   -0.8000    0.0000 C   0  0  0  0  0  0  0  0  0  0  0  0
    4.1569   -2.4000    0.0000 C   0  0  0  0  0  0  0  0  0  0  0  0
    5.5426    0.0000    0.0000 C   0  0  0  0  0  0  0  0  0  0  0  0
    6.9282   -0.8000    0.0000 C   0  0  0  0  0  0  0  0  0  0  0  0
    8.3138    0.0000    0.0000 C   0  0  0  0  0  0  0  0  0  0  0  0
    9.6995   -0.8000    0.0000 N   0  0  0  0  0  0  0  0  0  0  0  0
    9.6995   -2.4000    0.0000 C   0  0  0  0  0  0  0  0  0  0  0  0
   11.0851   -3.2000    0.0000 C   0  0  0  0  0  0  0  0  0  0  0  0
   11.0851    0.0000    0.0000 C   0  0  0  0  0  0  0  0  0  0  0  0
   12.4708   -0.8000    0.0000 C   0  0  0  0  0  0  0  0  0  0  0  0
   -2.7713    0.0000    0.0000 C   0  0  0  0  0  0  0  0  0  0  0  0
  1  2  1  0  0  0  0
  2  3  1  0  0  0  0
  2 22  2  0  0  0  0
  3  4  2  0  0  0  0
  4  5  1  0  0  0  0
  5  6  1  0  0  0  0
  5 10  2  0  0  0  0
  6  7  2  0  0  0  0
  6 22  1  0  0  0  0
  7  8  1  0  0  0  0
  8  9  2  0  0  0  0
  9 10  1  0  0  0  0
 10 11  1  0  0  0  0
 11 12  1  0  0  0  0
 12 13  1  1  0  0  0
 12 14  1  0  0  0  0
 14 15  1  0  0  0  0
 15 16  1  0  0  0  0
 16 17  1  0  0  0  0
 17 18  1  0  0  0  0
 17 20  1  0  0  0  0
 18 19  1  0  0  0  0
 20 21  1  0  0  0  0
M  END
> <Acceptable>
false

> <IC50>
2.5

$$$$

Generated by Molecular Materials Informatics

 17 18  0  0  0  0  0  0  0  0999 V2000
    4.1569    2.4000    0.0000 Cl  0  0  0  0  0  0  0  0  0  0  0  0
    2.7713    1.6000    0.0000 C   0  0  0  0  0  0  0  0  0  0  0  0
    1.3856    2.4000    0.0000 C   0  0  0  0  0  0  0  0  0  0  0  0
    0.0000    1.6000    0.0000 C   0  0  0  0  0  0  0  0  0  0  0  0
   -1.3856    2.4000    0.0000 N   0  0  0  0  0  0  0  0  0  0  0  0
   -2.7713    1.6000    0.0000 C   0  0  0  0  0  0  0  0  0  0  0  0
   -2.7713    0.0000    0.0000 N   0  0  0  0  0  0  0  0  0  0  0  0
   -1.3856   -0.8000    0.0000 S   0  0  0  0  0  0  0  0  0  0  0  0
   -2.4141   -2.0257    0.0000 O   0  0  0  0  0  0  0  0  0  0  0  0
   -0.3572   -2.0257    0.0000 O   0  0  0  0  0  0  0  0  0  0  0  0
    0.0000    0.0000    0.0000 C   0  0  0  0  0  0  0  0  0  0  0  0
    1.3856   -0.8000    0.0000 C   0  0  0  0  0  0  0  0  0  0  0  0
    2.7713    0.0000    0.0000 C   0  0  0  0  0  0  0  0  0  0  0  0
    4.1569   -0.8000    0.0000 S   0  0  0  0  0  0  0  0  0  0  0  0
    4.9569    0.5856    0.0000 O   0  0  0  0  0  0  0  0  0  0  0  0
    3.3569   -2.1856    0.0000 O   0  0  0  0  0  0  0  0  0  0  0  0
    5.5426   -1.6000    0.0000 N   0  0  0  0  0  0  0  0  0  0  0  0
  1  2  1  0  0  0  0
  2  3  1  0  0  0  0
  2 13  2  0  0  0  0
  3  4  2  0  0  0  0
  4  5  1  0  0  0  0
  4 11  1  0  0  0  0
  5  6  2  0  0  0  0
  6  7  1  0  0  0  0
  7  8  1  0  0  0  0
  8  9  2  0  0  0  0
  8 10  2  0  0  0  0
  8 11  1  0  0  0  0
 11 12  2  0  0  0  0
 12 13  1  0  0  0  0
 13 14  1  0  0  0  0
 14 15  2  0  0  0  0
 14 16  2  0  0  0  0
 14 17  1  0  0  0  0
M  END
> <Acceptable>
true

> <IC50>
N/A

$$$$

Generated by Molecular Materials Informatics

 21 23  0  0  0  0  0  0  0  0999 V2000
   -4.8000    2.7713    0.0000 Cl  0  0  0  0  0  0  0  0  0  0  0  0
   -4.0000    1.3856    0.0000 C   0  0  0  0  0  0  0  0  0  0  0  0
   -4.8000    0.0000    0.0000 C   0  0  0  0  0  0  0  0  0  0  0  0
   -4.0000   -1.3856    0.0000 C   0  0  0  0  0  0  0  0  0  0  0  0
   -2.4000   -1.3856    0.0000 C   0  0  0  0  0  0  0  0  0  0  0  0
   -1.6000   -2.7713    0.0000 S   0  0  0  0  0  0  0  0  0  0  0  0
    0.0000   -2.7713    0.0000 C   0  0  0  0  0  0  0  0  0  0  0  0
    0.8000   -4.1569    0.0000 C   0  0  0  0  0  0  0  0  0  0  0  0
    2.4000   -4.1569    0.0000 C   0  0  0  0  0  0  0  0  0  0  0  0
    3.2000   -2.7713    0.0000 C   0  0  0  0  0  0  0  0  0  0  0  0
    2.4000   -1.3856    0.0000 C   0  0  0  0  0  0  0  0  0  0  0  0
    0.8000   -1.3856    0.0000 C   0  0  0  0  0  0  0  0  0  0  0  0
    0.0000    0.0000    0.0000 N   0  0  0  0  0  0  0  0  0  0  0  0
    0.8000    1.3856    0.0000 C   0  0  0  0  0  0  0  0  0  0  0  0
    2.4000    1.3856    0.0000 C   0  0  0  0  0  0  0  0  0  0  0  0
    3.2000    2.7713    0.0000 C   0  0  0  0  0  0  0  0  0  0  0  0
    4.8000    2.7713    0.0000 N   0  0  0  0  0  0  0  0  0  0  0  0
    5.6000    1.3856    0.0000 C   0  0  0  0  0  0  0  0  0  0  0  0
    5.6000    4.1569    0.0000 C   0  0  0  0  0  0  0  0  0  0  0  0
   -1.6000    0.0000    0.0000 C   0  0  0  0  0  0  0  0  0  0  0  0
   -2.4000    1.3856    0.0000 C   0  0  0  0  0  0  0  0  0  0  0  0
  1  2  1  0  0  0  0
  2  3  1  0  0  0  0
  2 21  2  0  0  0  0
  3  4  2  0  0  0  0
  4  5  1  0  0  0  0
  5  6  1  0  0  0  0
  5 20  2  0  0  0  0
  6  7  1  0  0  0  0
  7  8  1  0  0  0  0
  7 12  2  0  0  0  0
  8  9  2  0  0  0  0
  9 10  1  0  0  0  0
 10 11  2  0  0  0  0
 11 12  1  0  0  0  0
 12 13  1  0  0  0  0
 13 14  1  0  0  0  0
 13 20  1  0  0  0  0
 14 15  1  0  0  0  0
 15 16  1  0  0  0  0
 16 17  1  0  0  0  0
 17 18  1  0  0  0  0
 17 19  1  0  0  0  0
 20 21  1  0  0  0  0
M  END
> <Acceptable>
false

> <IC50>
1.47

$$$$

Generated by Molecular Materials Informatics

 17 17  0  0  0  0  0  0  0  0999 V2000
   -5.5426    3.2000    0.0000 Cl  0  0  0  0  0  0  0  0  0  0  0  0
   -4.1569    2.4000    0.0000 C   0  0  0  0  0  0  0  0  0  0  0  0
   -2.7713    3.2000    0.0000 C   0  0  0  0  0  0  0  0  0  0  0  0
   -1.3856    2.4000    0.0000 C   0  0  0  0  0  0  0  0  0  0  0  0
   -1.3856    0.8000    0.0000 C   0  0  0  0  0  0  0  0  0  0  0  0
    0.0000    0.0000    0.0000 S   0  0  0  0  0  0  0  0  0  0  0  0
    0.8000    1.3856    0.0000 O   0  0  0  0  0  0  0  0  0  0  0  0
   -0.8000   -1.3856    0.0000 O   0  0  0  0  0  0  0  0  0  0  0  0
    1.3856   -0.8000    0.0000 N   0  0  0  0  0  0  0  0  0  0  0  0
    2.7713    0.0000    0.0000 C   0  0  0  0  0  0  0  0  0  0  0  0
    2.7713    1.6000    0.0000 O   0  0  0  0  0  0  0  0  0  0  0  0
    4.1569   -0.8000    0.0000 N   0  0  0  0  0  0  0  0  0  0  0  0
    5.5426    0.0000    0.0000 C   0  0  0  0  0  0  0  0  0  0  0  0
    6.9282   -0.8000    0.0000 C   0  0  0  0  0  0  0  0  0  0  0  0
    8.3138    0.0000    0.0000 C   0  0  0  0  0  0  0  0  0  0  0  0
   -2.7713    0.0000    0.0000 C   0  0  0  0  0  0  0  0  0  0  0  0
   -4.1569    0.8000    0.0000 C   0  0  0  0  0  0  0  0  0  0  0  0
  1  2  1  0  0  0  0
  2  3  1  0  0  0  0
  2 17  2  0  0  0  0
  3  4  2  0  0  0  0
  4  5  1  0  0  0  0
  5  6  1  0  0  0  0
  5 16  2  0  0  0  0
  6  7  2  0  0  0  0
  6  8  2  0  0  0  0
  6  9  1  0  0  0  0
  9 10  1  0  0  0  0
 10 11  2  0  0  0  0
 10 12  1  0  0  0  0
 12 13  1  0  0  0  0
 13 14  1  0  0  0  0
 14 15  1  0  0  0  0
 16 17  1  0  0  0  0
M  END
> <Acceptable>
true

> <IC50>
N/A

$$$$

Generated by Molecular Materials Informatics

 22 24  0  0  0  0  0  0  0  0999 V2000
   -5.5426    3.2000    0.0000 Cl  0  0  0  0  0  0  0  0  0  0  0  0
   -4.1569    2.4000    0.0000 C   0  0  0  0  0  0  0  0  0  0  0  0
   -2.7713    3.2000    0.0000 C   0  0  0  0  0  0  0  0  0  0  0  0
   -1.3856    2.4000    0.0000 C   0  0  0  0  0  0  0  0  0  0  0  0
   -1.3856    0.8000    0.0000 C   0  0  0  0  0  0  0  0  0  0  0  0
   -2.7713    0.0000    0.0000 C   0  0  0  0  0  0  0  0  0  0  0  0
   -4.1569    0.8000    0.0000 C   0  0  0  0  0  0  0  0  0  0  0  0
   -5.5426    0.0000    0.0000 S   0  0  0  0  0  0  0  0  0  0  0  0
   -6.3426    1.3856    0.0000 O   0  0  0  0  0  0  0  0  0  0  0  0
   -4.7426   -1.3856    0.0000 O   0  0  0  0  0  0  0  0  0  0  0  0
   -6.9282   -0.8000    0.0000 N   0  0  0  0  0  0  0  0  0  0  0  0
    0.0000    0.0000    0.0000 C   0  0  0  0  0  0  0  0  0  0  0  0
   -0.9405   -1.2944    0.0000 O   0  0  0  0  0  0  0  0  0  0  0  0
    0.6508    1.4617    0.0000 N   0  0  0  0  0  0  0  0  0  0  0  0
    2.2420    1.2944    0.0000 C   0  0  0  0  0  0  0  0  0  0  0  0
    3.3126    2.4835    0.0000 O   0  0  0  0  0  0  0  0  0  0  0  0
    2.5747   -0.2706    0.0000 C   0  0  0  0  0  0  0  0  0  0  0  0
    3.9603   -1.0706    0.0000 C   0  0  0  0  0  0  0  0  0  0  0  0
    3.9603   -2.6706    0.0000 C   0  0  0  0  0  0  0  0  0  0  0  0
    2.5747   -3.4706    0.0000 C   0  0  0  0  0  0  0  0  0  0  0  0
    1.1890   -2.6706    0.0000 C   0  0  0  0  0  0  0  0  0  0  0  0
    1.1890   -1.0706    0.0000 C   0  0  0  0  0  0  0  0  0  0  0  0
  1  2  1  0  0  0  0
  2  3  1  0  0  0  0
  2  7  2  0  0  0  0
  3  4  2  0  0  0  0
  4  5  1  0  0  0  0
  5  6  2  0  0  0  0
  5 12  1  0  0  0  0
  6  7  1  0  0  0  0
  7  8  1  0  0  0  0
  8  9  2  0  0  0  0
  8 10  2  0  0  0  0
  8 11  1  0  0  0  0
 12 13  1  6  0  0  0
 12 14  1  0  0  0  0
 12 22  1  0  0  0  0
 14 15  1  0  0  0  0
 15 16  2  0  0  0  0
 15 17  1  0  0  0  0
 17 18  1  0  0  0  0
 17 22  2  0  0  0  0
 18 19  2  0  0  0  0
 19 20  1  0  0  0  0
 20 21  2  0  0  0  0
 21 22  1  0  0  0  0
M  END
> <Acceptable>
true

> <IC50>
N/A

$$$$

Generated by Molecular Materials Informatics

 11 12  0  0  0  0  0  0  0  0999 V2000
   -4.1569    0.8000    0.0000 Cl  0  0  0  0  0  0  0  0  0  0  0  0
   -2.7713    0.0000    0.0000 C   0  0  0  0  0  0  0  0  0  0  0  0
   -2.7713   -1.6000    0.0000 C   0  0  0  0  0  0  0  0  0  0  0  0
   -1.3856   -2.4000    0.0000 C   0  0  0  0  0  0  0  0  0  0  0  0
    0.0000   -1.6000    0.0000 C   0  0  0  0  0  0  0  0  0  0  0  0
    1.5217   -2.0944    0.0000 O   0  0  0  0  0  0  0  0  0  0  0  0
    2.4621   -0.8000    0.0000 C   0  0  0  0  0  0  0  0  0  0  0  0
    4.0621   -0.8000    0.0000 O   0  0  0  0  0  0  0  0  0  0  0  0
    1.5217    0.4944    0.0000 N   0  0  0  0  0  0  0  0  0  0  0  0
    0.0000    0.0000    0.0000 C   0  0  0  0  0  0  0  0  0  0  0  0
   -1.3856    0.8000    0.0000 C   0  0  0  0  0  0  0  0  0  0  0  0
  1  2  1  0  0  0  0
  2  3  1  0  0  0  0
  2 11  2  0  0  0  0
  3  4  2  0  0  0  0
  4  5  1  0  0  0  0
  5  6  1  0  0  0  0
  5 10  2  0  0  0  0
  6  7  1  0  0  0  0
  7  8  2  0  0  0  0
  7  9  1  0  0  0  0
  9 10  1  0  0  0  0
 10 11  1  0  0  0  0
M  END
> <Acceptable>
true

> <IC50>
N/A

$$$$

Generated by Molecular Materials Informatics

 22 23  0  0  0  0  0  0  0  0999 V2000
    4.8000    2.7713    0.0000 S   0  0  0  0  0  0  0  0  0  0  0  0
    3.4144    3.5713    0.0000 O   0  0  0  0  0  0  0  0  0  0  0  0
    6.1856    1.9713    0.0000 O   0  0  0  0  0  0  0  0  0  0  0  0
    4.0000    1.3856    0.0000 C   0  0  0  0  0  0  0  0  0  0  0  0
    2.4000    1.3856    0.0000 N   0  0  0  0  0  0  0  0  0  0  0  0
    1.6000    0.0000    0.0000 C   0  0  0  0  0  0  0  0  0  0  0  0
    0.0000    0.0000    0.0000 C   0  0  0  0  0  0  0  0  0  0  0  0
   -0.8000    1.3856    0.0000 C   0  0  0  0  0  0  0  0  0  0  0  0
   -2.4000    1.3856    0.0000 C   0  0  0  0  0  0  0  0  0  0  0  0
   -3.2000    0.0000    0.0000 C   0  0  0  0  0  0  0  0  0  0  0  0
   -2.4000   -1.3856    0.0000 C   0  0  0  0  0  0  0  0  0  0  0  0
   -0.8000   -1.3856    0.0000 C   0  0  0  0  0  0  0  0  0  0  0  0
    0.0000   -2.7713    0.0000 O   0  0  0  0  0  0  0  0  0  0  0  0
    1.6000   -2.7713    0.0000 C   0  0  0  0  0  0  0  0  0  0  0  0
    1.3222   -4.3470    0.0000 C   0  0  0  0  0  0  0  0  0  0  0  0
    3.1035   -3.3185    0.0000 C   0  0  0  0  0  0  0  0  0  0  0  0
    2.4000   -1.3856    0.0000 C   0  0  0  0  0  0  0  0  0  0  0  0
    4.0000   -1.3856    0.0000 O   0  0  0  0  0  0  0  0  0  0  0  0
   -3.2000    2.7713    0.0000 C   0  0  0  0  0  0  0  0  0  0  0  0
   -4.8000    2.7713    0.0000 N   0  0  0  0  0  0  0  0  0  0  0  0
    5.6000    4.1569    0.0000 C   0  0  0  0  0  0  0  0  0  0  0  0
    7.2000    4.1569    0.0000 C   0  0  0  0  0  0  0  0  0  0  0  0
  1  2  2  0  0  0  0
  1  3  2  0  0  0  0
  1  4  1  0  0  0  0
  1 21  1  0  0  0  0
  4  5  1  0  0  0  0
  6  5  1  1  0  0  0
  6  7  1  0  0  0  0
  6 17  1  0  0  0  0
  7  8  1  0  0  0  0
  7 12  2  0  0  0  0
  8  9  2  0  0  0  0
  9 10  1  0  0  0  0
  9 19  1  0  0  0  0
 10 11  2  0  0  0  0
 11 12  1  0  0  0  0
 12 13  1  0  0  0  0
 13 14  1  0  0  0  0
 14 15  1  0  0  0  0
 14 16  1  0  0  0  0
 14 17  1  0  0  0  0
 17 18  1  1  0  0  0
 19 20  1  0  0  0  0
 21 22  1  0  0  0  0
M  END
> <Acceptable>
false

> <IC50>
6.6

$$$$

Generated by Molecular Materials Informatics

 20 23  0  0  0  0  0  0  0  0999 V2000
   -3.9261   -0.4944    0.0000 N   0  0  0  0  0  0  0  0  0  0  0  0
   -5.4478    0.0000    0.0000 C   0  0  0  0  0  0  0  0  0  0  0  0
   -5.4478    1.6000    0.0000 C   0  0  0  0  0  0  0  0  0  0  0  0
   -3.9261    2.0944    0.0000 N   0  0  0  0  0  0  0  0  0  0  0  0
   -2.9856    0.8000    0.0000 C   0  0  0  0  0  0  0  0  0  0  0  0
   -1.3856    0.8000    0.0000 C   0  0  0  0  0  0  0  0  0  0  0  0
    0.0000    1.6000    0.0000 C   0  0  0  0  0  0  0  0  0  0  0  0
    0.0000    0.0000    0.0000 C   0  0  0  0  0  0  0  0  0  0  0  0
    1.5757   -0.2778    0.0000 C   0  0  0  0  0  0  0  0  0  0  0  0
    2.6042    0.9478    0.0000 C   0  0  0  0  0  0  0  0  0  0  0  0
    4.1798    0.6700    0.0000 C   0  0  0  0  0  0  0  0  0  0  0  0
    4.7271   -0.8335    0.0000 C   0  0  0  0  0  0  0  0  0  0  0  0
    3.6986   -2.0592    0.0000 C   0  0  0  0  0  0  0  0  0  0  0  0
    2.1229   -1.7813    0.0000 C   0  0  0  0  0  0  0  0  0  0  0  0
   -0.5472   -1.5035    0.0000 C   0  0  0  0  0  0  0  0  0  0  0  0
    0.4812   -2.7292    0.0000 C   0  0  0  0  0  0  0  0  0  0  0  0
   -0.0660   -4.2327    0.0000 C   0  0  0  0  0  0  0  0  0  0  0  0
   -1.6417   -4.5105    0.0000 C   0  0  0  0  0  0  0  0  0  0  0  0
   -2.6702   -3.2849    0.0000 C   0  0  0  0  0  0  0  0  0  0  0  0
   -2.1229   -1.7813    0.0000 C   0  0  0  0  0  0  0  0  0  0  0  0
  1  2  1  0  0  0  0
  1  5  2  0  0  0  0
  2  3  1  0  0  0  0
  3  4  1  0  0  0  0
  4  5  1  0  0  0  0
  6  5  1  6  0  0  0
  6  7  1  0  0  0  0
  6  8  1  0  0  0  0
  7  8  1  0  0  0  0
  8  9  1  0  0  0  0
  8 15  1  0  0  0  0
  9 10  1  0  0  0  0
  9 14  2  0  0  0  0
 10 11  2  0  0  0  0
 11 12  1  0  0  0  0
 12 13  2  0  0  0  0
 13 14  1  0  0  0  0
 15 16  1  0  0  0  0
 15 20  2  0  0  0  0
 16 17  2  0  0  0  0
 17 18  1  0  0  0  0
 18 19  2  0  0  0  0
 19 20  1  0  0  0  0
M  END
> <Acceptable>
false

> <IC50>
23

$$$$

Generated by Molecular Materials Informatics

 27 30  0  0  0  0  0  0  0  0999 V2000
  -16.7037   -3.0508    0.0000 O   0  0  0  0  0  0  0  0  0  0  0  0
  -15.3181   -2.2508    0.0000 C   0  0  0  0  0  0  0  0  0  0  0  0
  -13.9324   -3.0508    0.0000 N   0  0  0  0  0  0  0  0  0  0  0  0
  -12.5468   -2.2508    0.0000 C   0  0  0  0  0  0  0  0  0  0  0  0
  -11.1612   -3.0508    0.0000 C   0  0  0  0  0  0  0  0  0  0  0  0
   -9.7755   -2.2508    0.0000 C   0  0  0  0  0  0  0  0  0  0  0  0
   -9.7755   -0.6508    0.0000 C   0  0  0  0  0  0  0  0  0  0  0  0
   -8.3899    0.1492    0.0000 O   0  0  0  0  0  0  0  0  0  0  0  0
   -7.0042   -0.6508    0.0000 C   0  0  0  0  0  0  0  0  0  0  0  0
   -5.6186    0.1492    0.0000 C   0  0  0  0  0  0  0  0  0  0  0  0
   -4.2330   -0.6508    0.0000 C   0  0  0  0  0  0  0  0  0  0  0  0
   -2.8473    0.1492    0.0000 C   0  0  0  0  0  0  0  0  0  0  0  0
   -1.4617   -0.6508    0.0000 C   0  0  0  0  0  0  0  0  0  0  0  0
   -1.2944   -2.2420    0.0000 N   0  0  0  0  0  0  0  0  0  0  0  0
    0.2706   -2.5747    0.0000 N   0  0  0  0  0  0  0  0  0  0  0  0
    1.0706   -1.1890    0.0000 N   0  0  0  0  0  0  0  0  0  0  0  0
    0.0000    0.0000    0.0000 N   0  0  0  0  0  0  0  0  0  0  0  0
    0.3327    1.5650    0.0000 C   0  0  0  0  0  0  0  0  0  0  0  0
    1.8543    2.0595    0.0000 C   0  0  0  0  0  0  0  0  0  0  0  0
    2.1870    3.6245    0.0000 C   0  0  0  0  0  0  0  0  0  0  0  0
    0.9980    4.6951    0.0000 C   0  0  0  0  0  0  0  0  0  0  0  0
   -0.5237    4.2007    0.0000 C   0  0  0  0  0  0  0  0  0  0  0  0
   -0.8564    2.6356    0.0000 C   0  0  0  0  0  0  0  0  0  0  0  0
  -11.1612    0.1492    0.0000 C   0  0  0  0  0  0  0  0  0  0  0  0
  -12.5468   -0.6508    0.0000 C   0  0  0  0  0  0  0  0  0  0  0  0
  -13.9324    0.1492    0.0000 C   0  0  0  0  0  0  0  0  0  0  0  0
  -15.3181   -0.6508    0.0000 C   0  0  0  0  0  0  0  0  0  0  0  0
  1  2  2  0  0  0  0
  2  3  1  0  0  0  0
  2 27  1  0  0  0  0
  3  4  1  0  0  0  0
  4  5  1  0  0  0  0
  4 25  2  0  0  0  0
  5  6  2  0  0  0  0
  6  7  1  0  0  0  0
  7  8  1  0  0  0  0
  7 24  2  0  0  0  0
  8  9  1  0  0  0  0
  9 10  1  0  0  0  0
 10 11  1  0  0  0  0
 11 12  1  0  0  0  0
 12 13  1  0  0  0  0
 13 14  2  0  0  0  0
 13 17  1  0  0  0  0
 14 15  1  0  0  0  0
 15 16  2  0  0  0  0
 16 17  1  0  0  0  0
 17 18  1  0  0  0  0
 18 19  1  0  0  0  0
 18 23  1  0  0  0  0
 19 20  1  0  0  0  0
 20 21  1  0  0  0  0
 21 22  1  0  0  0  0
 22 23  1  0  0  0  0
 24 25  1  0  0  0  0
 25 26  1  0  0  0  0
 26 27  1  0  0  0  0
M  END
> <Acceptable>
true

> <IC50>
N/A

$$$$

Generated by Molecular Materials Informatics

 17 17  0  0  0  0  0  0  0  0999 V2000
   -2.7561    0.2897    0.0000 S   0  0  0  0  0  0  0  0  0  0  0  0
   -4.0505    1.2301    0.0000 C   0  0  0  0  0  0  0  0  0  0  0  0
   -5.5122    0.5794    0.0000 C   0  0  0  0  0  0  0  0  0  0  0  0
   -6.8066    1.5198    0.0000 N   0  0  0  0  0  0  0  0  0  0  0  0
   -8.2683    0.8690    0.0000 C   0  0  0  0  0  0  0  0  0  0  0  0
   -9.5627    1.8095    0.0000 N   0  0  0  0  0  0  0  0  0  0  0  0
  -11.0244    1.1587    0.0000 C   0  0  0  0  0  0  0  0  0  0  0  0
  -12.4861    0.5079    0.0000 N   0  0  0  0  0  0  0  0  0  0  0  0
   -8.4355   -0.7222    0.0000 N   0  0  0  0  0  0  0  0  0  0  0  0
   -9.8972   -1.3730    0.0000 C   0  0  0  0  0  0  0  0  0  0  0  0
   -1.2944    0.9405    0.0000 C   0  0  0  0  0  0  0  0  0  0  0  0
    0.0000    0.0000    0.0000 C   0  0  0  0  0  0  0  0  0  0  0  0
    0.0000   -1.6000    0.0000 N   0  0  0  0  0  0  0  0  0  0  0  0
    1.5217   -2.0944    0.0000 C   0  0  0  0  0  0  0  0  0  0  0  0
    2.4621   -0.8000    0.0000 N   0  0  0  0  0  0  0  0  0  0  0  0
    1.5217    0.4944    0.0000 C   0  0  0  0  0  0  0  0  0  0  0  0
    2.0161    2.0161    0.0000 C   0  0  0  0  0  0  0  0  0  0  0  0
  1  2  1  0  0  0  0
  1 11  1  0  0  0  0
  2  3  1  0  0  0  0
  3  4  1  0  0  0  0
  4  5  1  0  0  0  0
  5  6  2  0  0  0  0
  5  9  1  0  0  0  0
  6  7  1  0  0  0  0
  7  8  3  0  0  0  0
  9 10  1  0  0  0  0
 11 12  1  0  0  0  0
 12 13  1  0  0  0  0
 12 16  2  0  0  0  0
 13 14  1  0  0  0  0
 14 15  2  0  0  0  0
 15 16  1  0  0  0  0
 16 17  1  0  0  0  0
M  END
> <Acceptable>
true

> <IC50>
10000

$$$$

Generated by Molecular Materials Informatics

 24 27  0  0  0  0  0  0  0  0999 V2000
    4.1569    2.4000    0.0000 F   0  0  0  0  0  0  0  0  0  0  0  0
    2.7713    1.6000    0.0000 C   0  0  0  0  0  0  0  0  0  0  0  0
    1.3856    2.4000    0.0000 C   0  0  0  0  0  0  0  0  0  0  0  0
    0.0000    1.6000    0.0000 C   0  0  0  0  0  0  0  0  0  0  0  0
    0.0000    0.0000    0.0000 C   0  0  0  0  0  0  0  0  0  0  0  0
   -1.3856   -0.8000    0.0000 N   0  3  0  0  0  0  0  0  0  0  0  0
   -2.7713    0.0000    0.0000 C   0  0  0  0  0  0  0  0  0  0  0  0
   -2.7713    1.6000    0.0000 C   0  0  0  0  0  0  0  0  0  0  0  0
   -1.3856    2.4000    0.0000 C   0  0  0  0  0  0  0  0  0  0  0  0
   -1.3856    4.0000    0.0000 O   0  0  0  0  0  0  0  0  0  0  0  0
   -4.1569    2.4000    0.0000 C   0  0  0  0  0  0  0  0  0  0  0  0
   -4.1569    4.0000    0.0000 O   0  0  0  0  0  0  0  0  0  0  0  0
   -5.5426    1.6000    0.0000 O   0  0  0  0  0  0  0  0  0  0  0  0
   -1.3856   -2.4000    0.0000 C   0  0  0  0  0  0  0  0  0  0  0  0
   -2.1856   -3.7856    0.0000 C   0  0  0  0  0  0  0  0  0  0  0  0
   -0.5856   -3.7856    0.0000 C   0  0  0  0  0  0  0  0  0  0  0  0
    1.3856   -0.8000    0.0000 C   0  0  0  0  0  0  0  0  0  0  0  0
    2.7713    0.0000    0.0000 C   0  0  0  0  0  0  0  0  0  0  0  0
    4.1569   -0.8000    0.0000 N   0  0  0  0  0  0  0  0  0  0  0  0
    4.1569   -2.4000    0.0000 C   0  0  0  0  0  0  0  0  0  0  0  0
    5.5426   -3.2000    0.0000 C   0  0  0  0  0  0  0  0  0  0  0  0
    6.9282   -2.4000    0.0000 N   0  0  0  0  0  0  0  0  0  0  0  0
    6.9282   -0.8000    0.0000 C   0  0  0  0  0  0  0  0  0  0  0  0
    5.5426    0.0000    0.0000 C   0  0  0  0  0  0  0  0  0  0  0  0
  1  2  1  0  0  0  0
  2  3  2  0  0  0  0
  2 18  1  0  0  0  0
  3  4  1  0  0  0  0
  4  5  1  6  0  0  0
  4  9  1  0  0  0  0
  5  6  2  0  0  0  0
  5 17  1  0  0  0  0
  6  7  1  0  0  0  0
  6 14  1  0  0  0  0
  7  8  2  0  0  0  0
  8  9  1  0  0  0  0
  8 11  1  0  0  0  0
  9 10  2  0  0  0  0
 11 12  2  0  0  0  0
 11 13  1  0  0  0  0
 14 15  1  0  0  0  0
 14 16  1  0  0  0  0
 15 16  1  0  0  0  0
 17 18  2  0  0  0  0
 18 19  1  0  0  0  0
 19 20  1  0  0  0  0
 19 24  1  0  0  0  0
 20 21  1  0  0  0  0
 21 22  1  0  0  0  0
 22 23  1  0  0  0  0
 23 24  1  0  0  0  0
M  CHG  1   6   1
M  END
> <Acceptable>
true

> <IC50>
966

$$$$

Generated by Molecular Materials Informatics

 32 34  0  0  0  0  0  0  0  0999 V2000
   -1.3856    4.0000    0.0000 Cl  0  0  0  0  0  0  0  0  0  0  0  0
   -1.3856    2.4000    0.0000 C   0  0  0  0  0  0  0  0  0  0  0  0
    0.0000    1.6000    0.0000 C   0  0  0  0  0  0  0  0  0  0  0  0
    0.0000    0.0000    0.0000 C   0  0  0  0  0  0  0  0  0  0  0  0
   -1.3856   -0.8000    0.0000 C   0  0  0  0  0  0  0  0  0  0  0  0
   -1.3856   -2.4000    0.0000 O   0  0  0  0  0  0  0  0  0  0  0  0
   -2.7713   -3.2000    0.0000 C   0  0  0  0  0  0  0  0  0  0  0  0
   -2.7713    0.0000    0.0000 C   0  0  0  0  0  0  0  0  0  0  0  0
   -2.7713    1.6000    0.0000 C   0  0  0  0  0  0  0  0  0  0  0  0
   -4.1569    2.4000    0.0000 N   0  0  0  0  0  0  0  0  0  0  0  0
    1.3856   -0.8000    0.0000 C   0  0  0  0  0  0  0  0  0  0  0  0
    1.3856   -2.4000    0.0000 O   0  0  0  0  0  0  0  0  0  0  0  0
    2.7713    0.0000    0.0000 N   0  0  0  0  0  0  0  0  0  0  0  0
    4.1569   -0.8000    0.0000 C   0  0  0  0  0  0  0  0  0  0  0  0
    5.5426    0.0000    0.0000 C   0  0  0  0  0  0  0  0  0  0  0  0
    6.9282   -0.8000    0.0000 C   0  0  0  0  0  0  0  0  0  0  0  0
    6.9282   -2.4000    0.0000 N   0  0  0  0  0  0  0  0  0  0  0  0
    5.5426   -3.2000    0.0000 C   0  0  0  0  0  0  0  0  0  0  0  0
    4.1569   -2.4000    0.0000 C   0  0  0  0  0  0  0  0  0  0  0  0
    2.7713   -3.2000    0.0000 O   0  0  0  0  0  0  0  0  0  0  0  0
    2.7713   -4.8000    0.0000 C   0  0  0  0  0  0  0  0  0  0  0  0
    8.3138   -3.2000    0.0000 C   0  0  0  0  0  0  0  0  0  0  0  0
    9.6995   -2.4000    0.0000 C   0  0  0  0  0  0  0  0  0  0  0  0
   11.0851   -3.2000    0.0000 C   0  0  0  0  0  0  0  0  0  0  0  0
   12.4708   -2.4000    0.0000 O   0  0  0  0  0  0  0  0  0  0  0  0
   13.8564   -3.2000    0.0000 C   0  0  0  0  0  0  0  0  0  0  0  0
   15.2420   -2.4000    0.0000 C   0  0  0  0  0  0  0  0  0  0  0  0
   16.6277   -3.2000    0.0000 C   0  0  0  0  0  0  0  0  0  0  0  0
   16.6277   -4.8000    0.0000 C   0  0  0  0  0  0  0  0  0  0  0  0
   18.0133   -5.6000    0.0000 F   0  0  0  0  0  0  0  0  0  0  0  0
   15.2420   -5.6000    0.0000 C   0  0  0  0  0  0  0  0  0  0  0  0
   13.8564   -4.8000    0.0000 C   0  0  0  0  0  0  0  0  0  0  0  0
  1  2  1  0  0  0  0
  2  3  1  0  0  0  0
  2  9  2  0  0  0  0
  3  4  2  0  0  0  0
  4  5  1  0  0  0  0
  4 11  1  0  0  0  0
  5  6  1  0  0  0  0
  5  8  2  0  0  0  0
  6  7  1  0  0  0  0
  8  9  1  0  0  0  0
  9 10  1  0  0  0  0
 11 12  2  0  0  0  0
 11 13  1  0  0  0  0
 14 13  1  6  0  0  0
 14 15  1  0  0  0  0
 14 19  1  0  0  0  0
 15 16  1  0  0  0  0
 16 17  1  0  0  0  0
 17 18  1  0  0  0  0
 17 22  1  1  0  0  0
 18 19  1  0  0  0  0
 19 20  1  1  0  0  0
 20 21  1  0  0  0  0
 22 23  1  0  0  0  0
 23 24  1  0  0  0  0
 24 25  1  0  0  0  0
 25 26  1  0  0  0  0
 26 27  1  0  0  0  0
 26 32  2  0  0  0  0
 27 28  2  0  0  0  0
 28 29  1  0  0  0  0
 29 30  1  0  0  0  0
 29 31  2  0  0  0  0
 31 32  1  0  0  0  0
M  END
> <Acceptable>
false

> <IC50>
0.02

$$$$

Generated by Molecular Materials Informatics

 32 34  0  0  0  0  0  0  0  0999 V2000
    0.0000    0.0000    0.0000 C   0  0  0  0  0  0  0  0  0  0  0  0
   -0.8000   -1.3856    0.0000 C   0  0  0  0  0  0  0  0  0  0  0  0
    1.6000    0.0000    0.0000 C   0  0  0  0  0  0  0  0  0  0  0  0
   -0.8000    1.3856    0.0000 C   0  0  0  0  0  0  0  0  0  0  0  0
   -2.4000   -1.3856    0.0000 C   0  0  0  0  0  0  0  0  0  0  0  0
    0.0000   -2.7713    0.0000 O   0  0  0  0  0  0  0  0  0  0  0  0
    2.4000    1.3856    0.0000 N   0  0  0  0  0  0  0  0  0  0  0  0
    2.4000   -1.3856    0.0000 O   0  0  0  0  0  0  0  0  0  0  0  0
   -2.4000    1.3856    0.0000 C   0  0  0  0  0  0  0  0  0  0  0  0
   -3.2000    0.0000    0.0000 C   0  0  0  0  0  0  0  0  0  0  0  0
   -0.8000   -4.1569    0.0000 C   0  0  0  0  0  0  0  0  0  0  0  0
    4.0000    1.3856    0.0000 C   0  0  0  0  0  0  0  0  0  0  0  0
   -3.2000    2.7713    0.0000 Cl  0  0  0  0  0  0  0  0  0  0  0  0
   -4.8000    0.0000    0.0000 N   0  0  0  0  0  0  0  0  0  0  0  0
    4.8000    2.7713    0.0000 C   0  0  0  0  0  0  0  0  0  0  0  0
    4.8000    0.0000    0.0000 C   0  0  0  0  0  0  0  0  0  0  0  0
    6.4000    2.7713    0.0000 C   0  0  0  0  0  0  0  0  0  0  0  0
    4.0000    4.1569    0.0000 O   0  0  0  0  0  0  0  0  0  0  0  0
    6.4000    0.0000    0.0000 C   0  0  0  0  0  0  0  0  0  0  0  0
    7.2000    1.3856    0.0000 N   0  0  0  0  0  0  0  0  0  0  0  0
    4.8000    5.5426    0.0000 C   0  0  0  0  0  0  0  0  0  0  0  0
    8.8000    1.3856    0.0000 C   0  0  0  0  0  0  0  0  0  0  0  0
    9.6000    0.0000    0.0000 C   0  0  0  0  0  0  0  0  0  0  0  0
   11.2000    0.0000    0.0000 C   0  0  0  0  0  0  0  0  0  0  0  0
   12.0000   -1.3856    0.0000 O   0  0  0  0  0  0  0  0  0  0  0  0
   13.6000   -1.3856    0.0000 C   0  0  0  0  0  0  0  0  0  0  0  0
   14.4000    0.0000    0.0000 C   0  0  0  0  0  0  0  0  0  0  0  0
   14.4000   -2.7713    0.0000 C   0  0  0  0  0  0  0  0  0  0  0  0
   16.0000    0.0000    0.0000 C   0  0  0  0  0  0  0  0  0  0  0  0
   16.0000   -2.7713    0.0000 C   0  0  0  0  0  0  0  0  0  0  0  0
   16.8000   -1.3856    0.0000 C   0  0  0  0  0  0  0  0  0  0  0  0
   18.4000   -1.3856    0.0000 F   0  0  0  0  0  0  0  0  0  0  0  0
  1  2  2  0  0  0  0
  1  3  1  0  0  0  0
  1  4  1  0  0  0  0
  2  5  1  0  0  0  0
  2  6  1  0  0  0  0
  3  7  1  0  0  0  0
  3  8  2  0  0  0  0
  4  9  2  0  0  0  0
  5 10  2  0  0  0  0
  6 11  1  0  0  0  0
 12  7  1  1  0  0  0
  9 10  1  0  0  0  0
  9 13  1  0  0  0  0
 10 14  1  0  0  0  0
 12 15  1  0  0  0  0
 12 16  1  0  0  0  0
 15 17  1  0  0  0  0
 15 18  1  1  0  0  0
 16 19  1  0  0  0  0
 17 20  1  0  0  0  0
 18 21  1  0  0  0  0
 19 20  1  0  0  0  0
 20 22  1  1  0  0  0
 22 23  1  0  0  0  0
 23 24  1  0  0  0  0
 24 25  1  0  0  0  0
 25 26  1  0  0  0  0
 26 27  2  0  0  0  0
 26 28  1  0  0  0  0
 27 29  1  0  0  0  0
 28 30  2  0  0  0  0
 29 31  2  0  0  0  0
 30 31  1  0  0  0  0
 31 32  1  0  0  0  0
M  END
> <Acceptable>
false

> <IC50>
0.0184

$$$$

Generated by Molecular Materials Informatics

 24 26  0  0  0  0  0  0  0  0999 V2000
   -5.5426   -3.2000    0.0000 F   0  0  0  0  0  0  0  0  0  0  0  0
   -4.1569   -2.4000    0.0000 C   0  0  0  0  0  0  0  0  0  0  0  0
   -4.1569   -0.8000    0.0000 C   0  0  0  0  0  0  0  0  0  0  0  0
   -2.7713    0.0000    0.0000 C   0  0  0  0  0  0  0  0  0  0  0  0
   -1.3856   -0.8000    0.0000 C   0  0  0  0  0  0  0  0  0  0  0  0
   -1.3856   -2.4000    0.0000 C   0  0  0  0  0  0  0  0  0  0  0  0
   -2.7713   -3.2000    0.0000 C   0  0  0  0  0  0  0  0  0  0  0  0
    0.0000    0.0000    0.0000 C   0  0  0  0  0  0  0  0  0  0  0  0
   -0.9405    1.2944    0.0000 O   0  0  0  0  0  0  0  0  0  0  0  0
    0.0000    2.5889    0.0000 C   0  0  0  0  0  0  0  0  0  0  0  0
    1.5217    2.0944    0.0000 C   0  0  0  0  0  0  0  0  0  0  0  0
    2.9073    2.8944    0.0000 C   0  0  0  0  0  0  0  0  0  0  0  0
    4.2930    2.0944    0.0000 C   0  0  0  0  0  0  0  0  0  0  0  0
    5.6786    2.8944    0.0000 C   0  0  0  0  0  0  0  0  0  0  0  0
    7.0643    3.6944    0.0000 N   0  0  0  0  0  0  0  0  0  0  0  0
    4.2930    0.4944    0.0000 C   0  0  0  0  0  0  0  0  0  0  0  0
    2.9073   -0.3056    0.0000 C   0  0  0  0  0  0  0  0  0  0  0  0
    1.5217    0.4944    0.0000 C   0  0  0  0  0  0  0  0  0  0  0  0
    0.6508   -1.4617    0.0000 C   0  0  0  0  0  0  0  0  0  0  0  0
    2.2420   -1.6289    0.0000 C   0  0  0  0  0  0  0  0  0  0  0  0
    2.8928   -3.0906    0.0000 C   0  0  0  0  0  0  0  0  0  0  0  0
    4.4840   -3.2578    0.0000 N   0  0  0  0  0  0  0  0  0  0  0  0
    5.4245   -1.9634    0.0000 C   0  0  0  0  0  0  0  0  0  0  0  0
    5.1348   -4.7195    0.0000 C   0  0  0  0  0  0  0  0  0  0  0  0
  1  2  1  0  0  0  0
  2  3  1  0  0  0  0
  2  7  2  0  0  0  0
  3  4  2  0  0  0  0
  4  5  1  0  0  0  0
  5  6  2  0  0  0  0
  5  8  1  0  0  0  0
  6  7  1  0  0  0  0
  8  9  1  0  0  0  0
  8 18  1  0  0  0  0
  8 19  1  6  0  0  0
  9 10  1  0  0  0  0
 10 11  1  0  0  0  0
 11 12  1  0  0  0  0
 11 18  2  0  0  0  0
 12 13  2  0  0  0  0
 13 14  1  0  0  0  0
 13 16  1  0  0  0  0
 14 15  3  0  0  0  0
 16 17  2  0  0  0  0
 17 18  1  0  0  0  0
 19 20  1  0  0  0  0
 20 21  1  0  0  0  0
 21 22  1  0  0  0  0
 22 23  1  0  0  0  0
 22 24  1  0  0  0  0
M  END
> <Acceptable>
false

> <IC50>
3.98

$$$$

Generated by Molecular Materials Informatics

 26 28  0  0  0  0  0  0  0  0999 V2000
   -2.4000    1.3856    0.0000 C   0  0  0  0  0  0  0  0  0  0  0  0
   -1.6000    0.0000    0.0000 C   0  0  0  0  0  0  0  0  0  0  0  0
    0.0000    0.0000    0.0000 C   0  0  0  0  0  0  0  0  0  0  0  0
    0.8000    1.3856    0.0000 N   0  0  0  0  0  0  0  0  0  0  0  0
    0.0000    2.7713    0.0000 C   0  0  0  0  0  0  0  0  0  0  0  0
   -1.6000    2.7713    0.0000 C   0  0  0  0  0  0  0  0  0  0  0  0
    1.0706   -1.1890    0.0000 N   0  0  0  0  0  0  0  0  0  0  0  0
    2.5323   -0.5383    0.0000 C   0  0  0  0  0  0  0  0  0  0  0  0
    2.3650    1.0530    0.0000 C   0  0  0  0  0  0  0  0  0  0  0  0
   -2.4000   -1.3856    0.0000 C   0  0  0  0  0  0  0  0  0  0  0  0
   -4.0000   -1.3856    0.0000 N   0  0  0  0  0  0  0  0  0  0  0  0
   -4.8000   -2.7713    0.0000 C   0  0  0  0  0  0  0  0  0  0  0  0
   -6.4000   -2.7713    0.0000 C   0  0  0  0  0  0  0  0  0  0  0  0
   -7.2000   -1.3856    0.0000 C   0  0  0  0  0  0  0  0  0  0  0  0
   -8.8000   -1.3856    0.0000 N   0  0  0  0  0  0  0  0  0  0  0  0
   -9.6000   -2.7713    0.0000 C   0  0  0  0  0  0  0  0  0  0  0  0
   -8.8000   -4.1569    0.0000 C   0  0  0  0  0  0  0  0  0  0  0  0
   -7.2000   -4.1569    0.0000 C   0  0  0  0  0  0  0  0  0  0  0  0
    0.8000    4.1569    0.0000 N   0  0  0  0  0  0  0  0  0  0  0  0
   -2.4000    4.1569    0.0000 Cl  0  0  0  0  0  0  0  0  0  0  0  0
    3.9179   -1.3383    0.0000 C   0  0  0  0  0  0  0  0  0  0  0  0
   -9.6000    0.0000    0.0000 C   0  0  0  0  0  0  0  0  0  0  0  0
  -11.2000    0.0000    0.0000 C   0  0  0  0  0  0  0  0  0  0  0  0
  -12.0000   -1.3856    0.0000 C   0  0  0  0  0  0  0  0  0  0  0  0
  -12.0000    1.3856    0.0000 C   0  0  0  0  0  0  0  0  0  0  0  0
   -1.6000   -2.7713    0.0000 O   0  0  0  0  0  0  0  0  0  0  0  0
  1  2  2  0  0  0  0
  1  6  1  0  0  0  0
  2  3  1  0  0  0  0
  2 10  1  0  0  0  0
  3  4  1  0  0  0  0
  3  7  1  1  0  0  0
  4  5  1  0  0  0  0
  4  9  1  0  0  0  0
  5  6  2  0  0  0  0
  5 19  1  0  0  0  0
  6 20  1  0  0  0  0
  7  8  1  0  0  0  0
  8  9  2  0  0  0  0
  8 21  1  0  0  0  0
 10 11  1  0  0  0  0
 10 26  2  0  0  0  0
 11 12  1  0  0  0  0
 13 12  1  6  0  0  0
 13 14  1  0  0  0  0
 13 18  1  0  0  0  0
 14 15  1  0  0  0  0
 15 16  1  0  0  0  0
 15 22  1  1  0  0  0
 16 17  1  0  0  0  0
 17 18  1  0  0  0  0
 22 23  1  0  0  0  0
 23 24  1  0  0  0  0
 23 25  1  0  0  0  0
M  END
> <Acceptable>
false

> <IC50>
2.6

$$$$

Generated by Molecular Materials Informatics

 52 54  0  0  0  0  0  0  0  0999 V2000
   -1.0855    7.8757    0.0000 O   0  0  0  0  0  0  0  0  0  0  0  0
   -1.4416    6.3158    0.0000 C   0  0  0  0  0  0  0  0  0  0  0  0
   -3.0416    6.3158    0.0000 O   0  0  0  0  0  0  0  0  0  0  0  0
   -4.4831    5.6216    0.0000 C   0  0  0  0  0  0  0  0  0  0  0  0
   -5.4807    6.8726    0.0000 C   0  0  0  0  0  0  0  0  0  0  0  0
   -4.8961    8.3620    0.0000 C   0  0  0  0  0  0  0  0  0  0  0  0
   -5.4807    4.3707    0.0000 C   0  0  0  0  0  0  0  0  0  0  0  0
   -6.2807    5.7563    0.0000 O   0  0  0  0  0  0  0  0  0  0  0  0
   -7.0628    4.1322    0.0000 C   0  0  0  0  0  0  0  0  0  0  0  0
   -5.8367    2.8108    0.0000 C   0  0  0  0  0  0  0  0  0  0  0  0
   -7.4367    2.8108    0.0000 O   0  0  0  0  0  0  0  0  0  0  0  0
   -5.4807    1.2509    0.0000 C   0  0  0  0  0  0  0  0  0  0  0  0
   -6.9222    0.5567    0.0000 C   0  0  0  0  0  0  0  0  0  0  0  0
   -4.4831    0.0000    0.0000 C   0  0  0  0  0  0  0  0  0  0  0  0
   -5.4807   -1.2509    0.0000 O   0  0  0  0  0  0  0  0  0  0  0  0
   -3.0415   -0.6942    0.0000 C   0  0  0  0  0  0  0  0  0  0  0  0
   -3.3976   -2.2541    0.0000 C   0  0  0  0  0  0  0  0  0  0  0  0
   -1.4415   -0.6942    0.0000 C   0  0  0  0  0  0  0  0  0  0  0  0
    0.0000    0.0000    0.0000 C   0  0  0  0  0  0  0  0  0  0  0  0
    0.1196   -1.5955    0.0000 O   0  0  0  0  0  0  0  0  0  0  0  0
    1.5611   -2.2897    0.0000 C   0  0  0  0  0  0  0  0  0  0  0  0
    1.5289   -0.4716    0.0000 C   0  0  0  0  0  0  0  0  0  0  0  0
    0.9976    1.2509    0.0000 C   0  0  0  0  0  0  0  0  0  0  0  0
    2.4391    0.5567    0.0000 O   0  0  0  0  0  0  0  0  0  0  0  0
    3.8975    1.2148    0.0000 C   0  0  0  0  0  0  0  0  0  0  0  0
    4.0568    2.8068    0.0000 O   0  0  0  0  0  0  0  0  0  0  0  0
    5.5153    3.4649    0.0000 C   0  0  0  0  0  0  0  0  0  0  0  0
    5.6746    5.0569    0.0000 C   0  0  0  0  0  0  0  0  0  0  0  0
    6.8144    2.5309    0.0000 C   0  0  0  0  0  0  0  0  0  0  0  0
    6.6551    0.9388    0.0000 C   0  0  0  0  0  0  0  0  0  0  0  0
    7.9542    0.0049    0.0000 N   0  0  0  0  0  0  0  0  0  0  0  0
    7.7948   -1.5872    0.0000 C   0  0  0  0  0  0  0  0  0  0  0  0
    9.4126    0.6629    0.0000 C   0  0  0  0  0  0  0  0  0  0  0  0
    5.1966    0.2808    0.0000 C   0  0  0  0  0  0  0  0  0  0  0  0
    5.0373   -1.3113    0.0000 O   0  0  0  0  0  0  0  0  0  0  0  0
    1.3536    2.8108    0.0000 C   0  0  0  0  0  0  0  0  0  0  0  0
    2.9536    2.8108    0.0000 C   0  0  0  0  0  0  0  0  0  0  0  0
    0.9976    4.3707    0.0000 C   0  0  0  0  0  0  0  0  0  0  0  0
    2.4391    5.0649    0.0000 O   0  0  0  0  0  0  0  0  0  0  0  0
    3.0972    6.5233    0.0000 C   0  0  0  0  0  0  0  0  0  0  0  0
    2.1632    7.8224    0.0000 O   0  0  0  0  0  0  0  0  0  0  0  0
    2.8213    9.2808    0.0000 C   0  0  0  0  0  0  0  0  0  0  0  0
    1.8873   10.5799    0.0000 C   0  0  0  0  0  0  0  0  0  0  0  0
    4.4133    9.4401    0.0000 C   0  0  0  0  0  0  0  0  0  0  0  0
    5.0714   10.8986    0.0000 O   0  0  0  0  0  0  0  0  0  0  0  0
    5.3473    8.1410    0.0000 C   0  0  0  0  0  0  0  0  0  0  0  0
    6.4645    9.2864    0.0000 O   0  0  0  0  0  0  0  0  0  0  0  0
    8.0150    8.8916    0.0000 C   0  0  0  0  0  0  0  0  0  0  0  0
    6.6693    7.2397    0.0000 C   0  0  0  0  0  0  0  0  0  0  0  0
    4.6892    6.6826    0.0000 C   0  0  0  0  0  0  0  0  0  0  0  0
    0.0000    5.6216    0.0000 C   0  0  0  0  0  0  0  0  0  0  0  0
    0.9976    6.8726    0.0000 C   0  0  0  0  0  0  0  0  0  0  0  0
  1  2  2  0  0  0  0
  2  3  1  0  0  0  0
  2 51  1  0  0  0  0
  3  4  1  0  0  0  0
  4  5  1  6  0  0  0
  4  7  1  0  0  0  0
  5  6  1  0  0  0  0
  7  8  1  0  0  0  0
  7  9  1  1  0  0  0
  7 10  1  0  0  0  0
 10 11  1  1  0  0  0
 10 12  1  0  0  0  0
 12 13  1  1  0  0  0
 12 14  1  0  0  0  0
 14 15  2  0  0  0  0
 14 16  1  0  0  0  0
 16 17  1  1  0  0  0
 16 18  1  0  0  0  0
 18 19  1  0  0  0  0
 19 20  1  0  0  0  0
 19 22  1  6  0  0  0
 19 23  1  0  0  0  0
 20 21  1  0  0  0  0
 23 24  1  1  0  0  0
 23 36  1  0  0  0  0
 25 24  1  6  0  0  0
 25 26  1  0  0  0  0
 25 34  1  0  0  0  0
 26 27  1  0  0  0  0
 27 28  1  6  0  0  0
 27 29  1  0  0  0  0
 29 30  1  0  0  0  0
 30 31  1  1  0  0  0
 30 34  1  0  0  0  0
 31 32  1  0  0  0  0
 31 33  1  0  0  0  0
 34 35  1  1  0  0  0
 36 37  1  6  0  0  0
 36 38  1  0  0  0  0
 38 39  1  6  0  0  0
 38 51  1  0  0  0  0
 40 39  1  6  0  0  0
 40 41  1  0  0  0  0
 40 50  1  0  0  0  0
 41 42  1  0  0  0  0
 42 43  1  1  0  0  0
 42 44  1  0  0  0  0
 44 45  1  6  0  0  0
 44 46  1  0  0  0  0
 46 47  1  0  0  0  0
 46 49  1  1  0  0  0
 46 50  1  0  0  0  0
 47 48  1  0  0  0  0
 51 52  1  6  0  0  0
M  END
> <Acceptable>
true

> <IC50>
59

$$$$

Generated by Molecular Materials Informatics

 14 15  0  0  0  0  0  0  0  0999 V2000
   -2.9069    0.5388    0.0000 O   0  0  0  0  0  0  0  0  0  0  0  0
   -1.5650   -0.3327    0.0000 C   0  0  0  0  0  0  0  0  0  0  0  0
    0.0000    0.0000    0.0000 N   0  0  0  0  0  0  0  0  0  0  0  0
    0.3327   -1.5650    0.0000 C   0  0  0  0  0  0  0  0  0  0  0  0
    1.9239   -1.7323    0.0000 O   0  0  0  0  0  0  0  0  0  0  0  0
    2.5747   -0.2706    0.0000 C   0  0  0  0  0  0  0  0  0  0  0  0
    4.1397    0.0621    0.0000 C   0  0  0  0  0  0  0  0  0  0  0  0
    5.2103   -1.1270    0.0000 C   0  0  0  0  0  0  0  0  0  0  0  0
    6.7754   -0.7943    0.0000 O   0  0  0  0  0  0  0  0  0  0  0  0
    1.3856    0.8000    0.0000 C   0  0  0  0  0  0  0  0  0  0  0  0
    1.5529    2.3912    0.0000 C   0  0  0  0  0  0  0  0  0  0  0  0
    0.2585    3.3317    0.0000 O   0  0  0  0  0  0  0  0  0  0  0  0
    3.0146    3.0420    0.0000 O   0  0  0  0  0  0  0  0  0  0  0  0
   -1.2324   -1.8977    0.0000 C   0  0  0  0  0  0  0  0  0  0  0  0
  1  2  2  0  0  0  0
  2  3  1  0  0  0  0
  2 14  1  0  0  0  0
  3  4  1  0  0  0  0
  3 10  1  0  0  0  0
  4  5  1  6  0  0  0
  4 14  1  0  0  0  0
  5  6  1  0  0  0  0
  6  7  2  0  0  0  0
  6 10  1  0  0  0  0
  7  8  1  0  0  0  0
  8  9  1  0  0  0  0
 10 11  1  1  0  0  0
 11 12  2  0  0  0  0
 11 13  1  0  0  0  0
M  END
> <Acceptable>
true

> <IC50>
N/A

$$$$

Generated by Molecular Materials Informatics

 26 28  0  0  0  0  0  0  0  0999 V2000
   -8.3138    3.2000    0.0000 C   0  0  0  0  0  0  0  0  0  0  0  0
   -6.9282    2.4000    0.0000 N   0  0  0  0  0  0  0  0  0  0  0  0
   -5.5426    3.2000    0.0000 C   0  0  0  0  0  0  0  0  0  0  0  0
   -4.1569    2.4000    0.0000 C   0  0  0  0  0  0  0  0  0  0  0  0
   -4.1569    0.8000    0.0000 C   0  0  0  0  0  0  0  0  0  0  0  0
   -5.5426    0.0000    0.0000 C   0  0  0  0  0  0  0  0  0  0  0  0
   -6.9282    0.8000    0.0000 C   0  0  0  0  0  0  0  0  0  0  0  0
   -9.6995    2.4000    0.0000 C   0  0  0  0  0  0  0  0  0  0  0  0
   -9.6995    0.8000    0.0000 C   0  0  0  0  0  0  0  0  0  0  0  0
  -11.0851    0.0000    0.0000 C   0  0  0  0  0  0  0  0  0  0  0  0
  -12.4708    0.8000    0.0000 C   0  0  0  0  0  0  0  0  0  0  0  0
  -12.4708    2.4000    0.0000 C   0  0  0  0  0  0  0  0  0  0  0  0
  -11.0851    3.2000    0.0000 C   0  0  0  0  0  0  0  0  0  0  0  0
   -2.7713    0.0000    0.0000 N   0  0  0  0  0  0  0  0  0  0  0  0
   -1.3856    0.8000    0.0000 C   0  0  0  0  0  0  0  0  0  0  0  0
    0.0000    0.0000    0.0000 C   0  0  0  0  0  0  0  0  0  0  0  0
   -1.3856    2.4000    0.0000 O   0  0  0  0  0  0  0  0  0  0  0  0
    1.3856    0.8000    0.0000 C   0  0  0  0  0  0  0  0  0  0  0  0
    2.7713    0.0000    0.0000 C   0  0  0  0  0  0  0  0  0  0  0  0
    2.7713   -1.6000    0.0000 C   0  0  0  0  0  0  0  0  0  0  0  0
    1.3856   -2.4000    0.0000 C   0  0  0  0  0  0  0  0  0  0  0  0
    0.0000   -1.6000    0.0000 C   0  0  0  0  0  0  0  0  0  0  0  0
    1.3856    2.4000    0.0000 O   0  0  0  0  0  0  0  0  0  0  0  0
    2.7713    3.2000    0.0000 C   0  0  0  0  0  0  0  0  0  0  0  0
    4.1569   -2.4000    0.0000 N   0  0  0  0  0  0  0  0  0  0  0  0
    1.3856   -4.0000    0.0000 Cl  0  0  0  0  0  0  0  0  0  0  0  0
  2  1  1  6  0  0  0
  1  8  1  0  0  0  0
  2  3  1  0  0  0  0
  2  7  1  0  0  0  0
  3  4  1  0  0  0  0
  4  5  1  0  0  0  0
  5  6  1  0  0  0  0
  5 14  1  1  0  0  0
  6  7  1  0  0  0  0
  8  9  1  0  0  0  0
  8 13  2  0  0  0  0
  9 10  2  0  0  0  0
 10 11  1  0  0  0  0
 11 12  2  0  0  0  0
 12 13  1  0  0  0  0
 14 15  1  0  0  0  0
 15 16  1  0  0  0  0
 15 17  2  0  0  0  0
 16 18  1  0  0  0  0
 16 22  2  0  0  0  0
 18 19  2  0  0  0  0
 18 23  1  0  0  0  0
 19 20  1  0  0  0  0
 20 21  2  0  0  0  0
 20 25  1  0  0  0  0
 21 22  1  0  0  0  0
 21 26  1  0  0  0  0
 23 24  1  0  0  0  0
M  END
> <Acceptable>
false

> <IC50>
0.61

$$$$

Generated by Molecular Materials Informatics

 24 26  0  0  0  0  0  0  0  0999 V2000
   -5.5426    3.2000    0.0000 Cl  0  0  0  0  0  0  0  0  0  0  0  0
   -4.1569    2.4000    0.0000 C   0  0  0  0  0  0  0  0  0  0  0  0
   -4.1569    0.8000    0.0000 C   0  0  0  0  0  0  0  0  0  0  0  0
   -2.7713    0.0000    0.0000 C   0  0  0  0  0  0  0  0  0  0  0  0
   -1.3856    0.8000    0.0000 C   0  0  0  0  0  0  0  0  0  0  0  0
   -1.3856    2.4000    0.0000 C   0  0  0  0  0  0  0  0  0  0  0  0
   -2.7713    3.2000    0.0000 C   0  0  0  0  0  0  0  0  0  0  0  0
    0.0000    0.0000    0.0000 C   0  0  0  0  0  0  0  0  0  0  0  0
    0.8000    1.3856    0.0000 O   0  0  0  0  0  0  0  0  0  0  0  0
    2.4000    1.3856    0.0000 C   0  0  0  0  0  0  0  0  0  0  0  0
    3.2000    2.7713    0.0000 C   0  0  0  0  0  0  0  0  0  0  0  0
    4.8000    2.7713    0.0000 C   0  0  0  0  0  0  0  0  0  0  0  0
    5.7405    1.4769    0.0000 N   0  0  0  0  0  0  0  0  0  0  0  0
    5.2460   -0.0448    0.0000 C   0  0  0  0  0  0  0  0  0  0  0  0
    7.2621    1.9713    0.0000 C   0  0  0  0  0  0  0  0  0  0  0  0
    7.2621    3.5713    0.0000 C   0  0  0  0  0  0  0  0  0  0  0  0
    5.7405    4.0657    0.0000 C   0  0  0  0  0  0  0  0  0  0  0  0
   -0.8000   -1.3856    0.0000 C   0  0  0  0  0  0  0  0  0  0  0  0
    1.3856   -0.8000    0.0000 C   0  0  0  0  0  0  0  0  0  0  0  0
    1.3856   -2.4000    0.0000 C   0  0  0  0  0  0  0  0  0  0  0  0
    2.7713   -3.2000    0.0000 C   0  0  0  0  0  0  0  0  0  0  0  0
    4.1569   -2.4000    0.0000 C   0  0  0  0  0  0  0  0  0  0  0  0
    4.1569   -0.8000    0.0000 C   0  0  0  0  0  0  0  0  0  0  0  0
    2.7713    0.0000    0.0000 C   0  0  0  0  0  0  0  0  0  0  0  0
  1  2  1  0  0  0  0
  2  3  1  0  0  0  0
  2  7  2  0  0  0  0
  3  4  2  0  0  0  0
  4  5  1  0  0  0  0
  5  6  2  0  0  0  0
  5  8  1  0  0  0  0
  6  7  1  0  0  0  0
  8  9  1  0  0  0  0
  8 18  1  6  0  0  0
  8 19  1  0  0  0  0
  9 10  1  0  0  0  0
 10 11  1  0  0  0  0
 12 11  1  1  0  0  0
 12 13  1  0  0  0  0
 12 17  1  0  0  0  0
 13 14  1  1  0  0  0
 13 15  1  0  0  0  0
 15 16  1  0  0  0  0
 16 17  1  0  0  0  0
 19 20  1  0  0  0  0
 19 24  2  0  0  0  0
 20 21  2  0  0  0  0
 21 22  1  0  0  0  0
 22 23  2  0  0  0  0
 23 24  1  0  0  0  0
M  END
> <Acceptable>
false

> <IC50>
0.012

$$$$

Generated by Molecular Materials Informatics

 17 17  0  0  0  0  0  0  0  0999 V2000
   -5.5426    0.0000    0.0000 C   0  0  0  0  0  0  0  0  0  0  0  0
   -4.1569    0.8000    0.0000 N   0  0  0  0  0  0  0  0  0  0  0  0
   -5.5426   -1.6000    0.0000 C   0  0  0  0  0  0  0  0  0  0  0  0
   -6.9282    0.8000    0.0000 C   0  0  0  0  0  0  0  0  0  0  0  0
   -6.9282   -0.8000    0.0000 C   0  0  0  0  0  0  0  0  0  0  0  0
   -2.7713    0.0000    0.0000 C   0  0  0  0  0  0  0  0  0  0  0  0
   -1.3856    0.8000    0.0000 C   0  0  0  0  0  0  0  0  0  0  0  0
    0.0000    0.0000    0.0000 C   0  0  0  0  0  0  0  0  0  0  0  0
   -1.3856    2.4000    0.0000 O   0  0  0  0  0  0  0  0  0  0  0  0
    0.0000   -1.6000    0.0000 C   0  0  0  0  0  0  0  0  0  0  0  0
    1.3856    0.8000    0.0000 C   0  0  0  0  0  0  0  0  0  0  0  0
    1.3856   -2.4000    0.0000 C   0  0  0  0  0  0  0  0  0  0  0  0
    2.7713    0.0000    0.0000 C   0  0  0  0  0  0  0  0  0  0  0  0
    2.7713   -1.6000    0.0000 C   0  0  0  0  0  0  0  0  0  0  0  0
    1.3856   -4.0000    0.0000 Cl  0  0  0  0  0  0  0  0  0  0  0  0
    4.1569    0.8000    0.0000 Cl  0  0  0  0  0  0  0  0  0  0  0  0
    4.1569   -2.4000    0.0000 N   0  0  0  0  0  0  0  0  0  0  0  0
  1  2  1  0  0  0  0
  1  3  1  0  0  0  0
  1  4  1  0  0  0  0
  1  5  1  0  0  0  0
  2  6  1  0  0  0  0
  6  7  1  0  0  0  0
  7  8  1  0  0  0  0
  7  9  1  1  0  0  0
  8 10  2  0  0  0  0
  8 11  1  0  0  0  0
 10 12  1  0  0  0  0
 11 13  2  0  0  0  0
 12 14  2  0  0  0  0
 12 15  1  0  0  0  0
 13 14  1  0  0  0  0
 13 16  1  0  0  0  0
 14 17  1  0  0  0  0
M  END
> <Acceptable>
true

> <IC50>
79.4

$$$$

Generated by Molecular Materials Informatics

 17 17  0  0  0  0  0  0  0  0999 V2000
   -6.9282   -2.4000    0.0000 Cl  0  0  0  0  0  0  0  0  0  0  0  0
   -0.6123   -1.4782    0.0000 O   0  0  0  0  0  0  0  0  0  0  0  0
    4.1569    0.8000    0.0000 N   0  0  0  0  0  0  0  0  0  0  0  0
    0.0000    0.0000    0.0000 C   0  0  0  0  0  0  0  0  0  0  0  0
    1.3856    0.8000    0.0000 C   0  0  0  0  0  0  0  0  0  0  0  0
   -1.3856    0.8000    0.0000 C   0  0  0  0  0  0  0  0  0  0  0  0
    2.7713    0.0000    0.0000 C   0  0  0  0  0  0  0  0  0  0  0  0
    0.6123   -1.4782    0.0000 C   0  0  0  0  0  0  0  0  0  0  0  0
    1.3856    2.4000    0.0000 C   0  0  0  0  0  0  0  0  0  0  0  0
   -2.7713    0.0000    0.0000 C   0  0  0  0  0  0  0  0  0  0  0  0
    4.1569    2.4000    0.0000 C   0  0  0  0  0  0  0  0  0  0  0  0
    5.5426    0.0000    0.0000 C   0  0  0  0  0  0  0  0  0  0  0  0
   -2.7713   -1.6000    0.0000 C   0  0  0  0  0  0  0  0  0  0  0  0
   -4.1569    0.8000    0.0000 C   0  0  0  0  0  0  0  0  0  0  0  0
   -4.1569   -2.4000    0.0000 C   0  0  0  0  0  0  0  0  0  0  0  0
   -5.5426    0.0000    0.0000 C   0  0  0  0  0  0  0  0  0  0  0  0
   -5.5426   -1.6000    0.0000 C   0  0  0  0  0  0  0  0  0  0  0  0
  1 17  1  0  0  0  0
  2  4  1  0  0  0  0
  3  7  1  0  0  0  0
  3 11  1  0  0  0  0
  3 12  1  0  0  0  0
  4  5  1  0  0  0  0
  4  6  1  0  0  0  0
  4  8  1  1  0  0  0
  5  7  1  0  0  0  0
  5  9  1  1  0  0  0
  6 10  1  0  0  0  0
 10 13  2  0  0  0  0
 10 14  1  0  0  0  0
 13 15  1  0  0  0  0
 14 16  2  0  0  0  0
 15 17  2  0  0  0  0
 16 17  1  0  0  0  0
M  END
> <Acceptable>
false

> <IC50>
2.9

$$$$

Generated by Molecular Materials Informatics

 16 16  0  0  0  0  0  0  0  0999 V2000
   -6.9282    2.4000    0.0000 Cl  0  0  0  0  0  0  0  0  0  0  0  0
   -5.5426    1.6000    0.0000 C   0  0  0  0  0  0  0  0  0  0  0  0
   -4.1569    2.4000    0.0000 C   0  0  0  0  0  0  0  0  0  0  0  0
   -2.7713    1.6000    0.0000 C   0  0  0  0  0  0  0  0  0  0  0  0
   -2.7713    0.0000    0.0000 C   0  0  0  0  0  0  0  0  0  0  0  0
   -1.3856   -0.8000    0.0000 O   0  0  0  0  0  0  0  0  0  0  0  0
    0.0000    0.0000    0.0000 C   0  0  0  0  0  0  0  0  0  0  0  0
    0.6123    1.4782    0.0000 C   0  0  0  0  0  0  0  0  0  0  0  0
   -0.6123    1.4782    0.0000 C   0  0  0  0  0  0  0  0  0  0  0  0
    1.3856   -0.8000    0.0000 C   0  0  0  0  0  0  0  0  0  0  0  0
    1.3856   -2.4000    0.0000 O   0  0  0  0  0  0  0  0  0  0  0  0
    2.7713    0.0000    0.0000 O   0  0  0  0  0  0  0  0  0  0  0  0
    4.1569   -0.8000    0.0000 C   0  0  0  0  0  0  0  0  0  0  0  0
    5.5426    0.0000    0.0000 C   0  0  0  0  0  0  0  0  0  0  0  0
   -4.1569   -0.8000    0.0000 C   0  0  0  0  0  0  0  0  0  0  0  0
   -5.5426    0.0000    0.0000 C   0  0  0  0  0  0  0  0  0  0  0  0
  1  2  1  0  0  0  0
  2  3  1  0  0  0  0
  2 16  2  0  0  0  0
  3  4  2  0  0  0  0
  4  5  1  0  0  0  0
  5  6  1  0  0  0  0
  5 15  2  0  0  0  0
  6  7  1  0  0  0  0
  7  8  1  0  0  0  0
  7  9  1  0  0  0  0
  7 10  1  0  0  0  0
 10 11  2  0  0  0  0
 10 12  1  0  0  0  0
 12 13  1  0  0  0  0
 13 14  1  0  0  0  0
 15 16  1  0  0  0  0
M  END
> <Acceptable>
true

> <IC50>
N/A

$$$$

Generated by Molecular Materials Informatics

 23 23  0  0  0  0  0  0  0  0999 V2000
    0.0000    0.0000    0.0000 N   0  3  0  0  0  0  0  0  0  0  0  0
    1.3856   -0.8000    0.0000 C   0  0  0  0  0  0  0  0  0  0  0  0
   -1.3856    0.8000    0.0000 C   0  0  0  0  0  0  0  0  0  0  0  0
    0.0000    1.6000    0.0000 C   0  0  0  0  0  0  0  0  0  0  0  0
   -1.3856   -0.8000    0.0000 C   0  0  0  0  0  0  0  0  0  0  0  0
    2.7713    0.0000    0.0000 C   0  0  0  0  0  0  0  0  0  0  0  0
   -2.7713    0.0000    0.0000 C   0  0  0  0  0  0  0  0  0  0  0  0
    1.3856    2.4000    0.0000 C   0  0  0  0  0  0  0  0  0  0  0  0
   -1.3856   -2.4000    0.0000 C   0  0  0  0  0  0  0  0  0  0  0  0
    4.1569   -0.8000    0.0000 C   0  0  0  0  0  0  0  0  0  0  0  0
   -4.1569    0.8000    0.0000 C   0  0  0  0  0  0  0  0  0  0  0  0
    5.5426    0.0000    0.0000 C   0  0  0  0  0  0  0  0  0  0  0  0
   -5.5426    0.0000    0.0000 C   0  0  0  0  0  0  0  0  0  0  0  0
    6.9282   -0.8000    0.0000 C   0  0  0  0  0  0  0  0  0  0  0  0
   -6.9282    0.8000    0.0000 C   0  0  0  0  0  0  0  0  0  0  0  0
    6.9282   -2.4000    0.0000 C   0  0  0  0  0  0  0  0  0  0  0  0
    8.3138    0.0000    0.0000 C   0  0  0  0  0  0  0  0  0  0  0  0
   -8.3138    0.0000    0.0000 C   0  0  0  0  0  0  0  0  0  0  0  0
    8.3138   -3.2000    0.0000 C   0  0  0  0  0  0  0  0  0  0  0  0
    9.6995   -0.8000    0.0000 C   0  0  0  0  0  0  0  0  0  0  0  0
   -9.6995    0.8000    0.0000 C   0  0  0  0  0  0  0  0  0  0  0  0
    9.6995   -2.4000    0.0000 C   0  0  0  0  0  0  0  0  0  0  0  0
   11.0851   -3.2000    0.0000 Cl  0  0  0  0  0  0  0  0  0  0  0  0
  1  2  1  0  0  0  0
  1  3  1  0  0  0  0
  1  4  1  0  0  0  0
  1  5  1  0  0  0  0
  2  6  1  0  0  0  0
  3  7  1  0  0  0  0
  4  8  1  0  0  0  0
  5  9  1  0  0  0  0
  6 10  1  0  0  0  0
  7 11  1  0  0  0  0
 10 12  1  0  0  0  0
 11 13  1  0  0  0  0
 12 14  1  0  0  0  0
 13 15  1  0  0  0  0
 14 16  2  0  0  0  0
 14 17  1  0  0  0  0
 15 18  1  0  0  0  0
 16 19  1  0  0  0  0
 17 20  2  0  0  0  0
 18 21  1  0  0  0  0
 19 22  2  0  0  0  0
 20 22  1  0  0  0  0
 22 23  1  0  0  0  0
M  CHG  1   1   1
M  END
> <Acceptable>
false

> <IC50>
0.0026

$$$$

Generated by Molecular Materials Informatics

 29 31  0  0  0  0  0  0  0  0999 V2000
   -2.7713    0.0000    0.0000 Cl  0  0  0  0  0  0  0  0  0  0  0  0
   -1.3856   -0.8000    0.0000 C   0  0  0  0  0  0  0  0  0  0  0  0
   -1.3856   -2.4000    0.0000 C   0  0  0  0  0  0  0  0  0  0  0  0
    0.0000   -3.2000    0.0000 C   0  0  0  0  0  0  0  0  0  0  0  0
    0.0000   -4.8000    0.0000 C   0  0  0  0  0  0  0  0  0  0  0  0
   -1.3856   -5.6000    0.0000 C   0  0  0  0  0  0  0  0  0  0  0  0
   -2.7713   -4.8000    0.0000 C   0  0  0  0  0  0  0  0  0  0  0  0
   -2.7713   -3.2000    0.0000 C   0  0  0  0  0  0  0  0  0  0  0  0
    0.0000    0.0000    0.0000 C   0  0  0  0  0  0  0  0  0  0  0  0
    0.0000    1.6000    0.0000 C   0  0  0  0  0  0  0  0  0  0  0  0
   -1.3856    2.4000    0.0000 C   0  0  0  0  0  0  0  0  0  0  0  0
   -1.3856    4.0000    0.0000 C   0  0  0  0  0  0  0  0  0  0  0  0
    0.0000    4.8000    0.0000 C   0  0  0  0  0  0  0  0  0  0  0  0
    1.3856    4.0000    0.0000 C   0  0  0  0  0  0  0  0  0  0  0  0
    1.3856    2.4000    0.0000 C   0  0  0  0  0  0  0  0  0  0  0  0
    1.3856   -0.8000    0.0000 C   0  0  0  0  0  0  0  0  0  0  0  0
    2.7713    0.0000    0.0000 C   0  0  0  0  0  0  0  0  0  0  0  0
    4.1569   -0.8000    0.0000 C   0  0  0  0  0  0  0  0  0  0  0  0
    4.1569   -2.4000    0.0000 C   0  0  0  0  0  0  0  0  0  0  0  0
    5.5426   -3.2000    0.0000 O   0  0  0  0  0  0  0  0  0  0  0  0
    6.9282   -2.4000    0.0000 C   0  0  0  0  0  0  0  0  0  0  0  0
    8.3138   -3.2000    0.0000 C   0  0  0  0  0  0  0  0  0  0  0  0
    9.6995   -2.4000    0.0000 N   0  0  0  0  0  0  0  0  0  0  0  0
    9.6995   -0.8000    0.0000 C   0  0  0  0  0  0  0  0  0  0  0  0
   11.0851    0.0000    0.0000 C   0  0  0  0  0  0  0  0  0  0  0  0
   11.0851   -3.2000    0.0000 C   0  0  0  0  0  0  0  0  0  0  0  0
   12.4708   -2.4000    0.0000 C   0  0  0  0  0  0  0  0  0  0  0  0
    2.7713   -3.2000    0.0000 C   0  0  0  0  0  0  0  0  0  0  0  0
    1.3856   -2.4000    0.0000 C   0  0  0  0  0  0  0  0  0  0  0  0
  1  2  1  0  0  0  0
  2  3  1  0  0  0  0
  2  9  2  0  0  0  0
  3  4  1  0  0  0  0
  3  8  2  0  0  0  0
  4  5  2  0  0  0  0
  5  6  1  0  0  0  0
  6  7  2  0  0  0  0
  7  8  1  0  0  0  0
  9 10  1  0  0  0  0
  9 16  1  0  0  0  0
 10 11  1  0  0  0  0
 10 15  2  0  0  0  0
 11 12  2  0  0  0  0
 12 13  1  0  0  0  0
 13 14  2  0  0  0  0
 14 15  1  0  0  0  0
 16 17  1  0  0  0  0
 16 29  2  0  0  0  0
 17 18  2  0  0  0  0
 18 19  1  0  0  0  0
 19 20  1  0  0  0  0
 19 28  2  0  0  0  0
 20 21  1  0  0  0  0
 21 22  1  0  0  0  0
 22 23  1  0  0  0  0
 23 24  1  0  0  0  0
 23 26  1  0  0  0  0
 24 25  1  0  0  0  0
 26 27  1  0  0  0  0
 28 29  1  0  0  0  0
M  END
> <Acceptable>
false

> <IC50>
0.18

$$$$

Generated by Molecular Materials Informatics

 22 24  0  0  0  0  0  0  0  0999 V2000
   -2.5352    0.7773    0.0000 Cl  0  0  0  0  0  0  0  0  0  0  0  0
   -2.0636    2.3062    0.0000 C   0  0  0  0  0  0  0  0  0  0  0  0
   -3.1519    3.4791    0.0000 C   0  0  0  0  0  0  0  0  0  0  0  0
   -2.6803    5.0080    0.0000 C   0  0  0  0  0  0  0  0  0  0  0  0
   -1.1204    5.3641    0.0000 C   0  0  0  0  0  0  0  0  0  0  0  0
   -0.0321    4.1912    0.0000 C   0  0  0  0  0  0  0  0  0  0  0  0
   -0.5037    2.6623    0.0000 C   0  0  0  0  0  0  0  0  0  0  0  0
    0.5845    1.4894    0.0000 C   0  0  0  0  0  0  0  0  0  0  0  0
    2.1135    1.9610    0.0000 N   0  0  0  0  0  0  0  0  0  0  0  0
    3.4354    1.0597    0.0000 C   0  0  0  0  0  0  0  0  0  0  0  0
    3.5550   -0.5358    0.0000 C   0  0  0  0  0  0  0  0  0  0  0  0
    5.0444   -1.1204    0.0000 O   0  0  0  0  0  0  0  0  0  0  0  0
    2.3821   -1.6241    0.0000 N   0  0  0  0  0  0  0  0  0  0  0  0
    0.8000   -1.3856    0.0000 C   0  0  0  0  0  0  0  0  0  0  0  0
    0.0000   -2.7713    0.0000 C   0  0  0  0  0  0  0  0  0  0  0  0
   -1.6000   -2.7713    0.0000 C   0  0  0  0  0  0  0  0  0  0  0  0
   -2.4000   -1.3856    0.0000 C   0  0  0  0  0  0  0  0  0  0  0  0
   -4.0000   -1.3856    0.0000 N   0  3  0  0  0  0  0  0  0  0  0  0
   -4.8000    0.0000    0.0000 O   0  0  0  0  0  0  0  0  0  0  0  0
   -4.8000   -2.7713    0.0000 O   0  5  0  0  0  0  0  0  0  0  0  0
   -1.6000    0.0000    0.0000 C   0  0  0  0  0  0  0  0  0  0  0  0
    0.0000    0.0000    0.0000 C   0  0  0  0  0  0  0  0  0  0  0  0
  1  2  1  0  0  0  0
  2  3  1  0  0  0  0
  2  7  2  0  0  0  0
  3  4  2  0  0  0  0
  4  5  1  0  0  0  0
  5  6  2  0  0  0  0
  6  7  1  0  0  0  0
  7  8  1  0  0  0  0
  8  9  2  0  0  0  0
  8 22  1  0  0  0  0
  9 10  1  0  0  0  0
 10 11  1  0  0  0  0
 11 12  2  0  0  0  0
 11 13  1  0  0  0  0
 13 14  1  0  0  0  0
 14 15  1  0  0  0  0
 14 22  2  0  0  0  0
 15 16  2  0  0  0  0
 16 17  1  0  0  0  0
 17 18  1  0  0  0  0
 17 21  2  0  0  0  0
 18 19  2  0  0  0  0
 18 20  1  0  0  0  0
 21 22  1  0  0  0  0
M  CHG  2  18   1  20  -1
M  END
> <Acceptable>
true

> <IC50>
N/A

$$$$

Generated by Molecular Materials Informatics

 14 15  0  0  0  0  0  0  0  0999 V2000
    1.3856    2.4000    0.0000 Cl  0  0  0  0  0  0  0  0  0  0  0  0
    0.0000    1.6000    0.0000 C   0  0  0  0  0  0  0  0  0  0  0  0
   -1.3856    2.4000    0.0000 C   0  0  0  0  0  0  0  0  0  0  0  0
   -2.7713    1.6000    0.0000 C   0  0  0  0  0  0  0  0  0  0  0  0
   -2.7713    0.0000    0.0000 C   0  0  0  0  0  0  0  0  0  0  0  0
   -1.3856   -0.8000    0.0000 C   0  0  0  0  0  0  0  0  0  0  0  0
   -1.3856   -2.4000    0.0000 Cl  0  0  0  0  0  0  0  0  0  0  0  0
    0.0000    0.0000    0.0000 C   0  0  0  0  0  0  0  0  0  0  0  0
    1.3856   -0.8000    0.0000 N   0  0  0  0  0  0  0  0  0  0  0  0
    2.7713    0.0000    0.0000 C   0  0  0  0  0  0  0  0  0  0  0  0
    2.9385    1.5912    0.0000 N   0  0  0  0  0  0  0  0  0  0  0  0
    4.5036    1.9239    0.0000 C   0  0  0  0  0  0  0  0  0  0  0  0
    5.3036    0.5383    0.0000 C   0  0  0  0  0  0  0  0  0  0  0  0
    4.2330   -0.6508    0.0000 N   0  0  0  0  0  0  0  0  0  0  0  0
  1  2  1  0  0  0  0
  2  3  1  0  0  0  0
  2  8  2  0  0  0  0
  3  4  2  0  0  0  0
  4  5  1  0  0  0  0
  5  6  2  0  0  0  0
  6  7  1  0  0  0  0
  6  8  1  0  0  0  0
  8  9  1  0  0  0  0
  9 10  2  0  0  0  0
 10 11  1  0  0  0  0
 10 14  1  0  0  0  0
 11 12  1  0  0  0  0
 12 13  1  0  0  0  0
 13 14  1  0  0  0  0
M  END
> <Acceptable>
true

> <IC50>
N/A

$$$$

Generated by Molecular Materials Informatics

 21 23  0  0  0  0  0  0  0  0999 V2000
   -3.2000    0.0000    0.0000 Cl  0  0  0  0  0  0  0  0  0  0  0  0
   -2.4000   -1.3856    0.0000 C   0  0  0  0  0  0  0  0  0  0  0  0
   -3.2000   -2.7713    0.0000 C   0  0  0  0  0  0  0  0  0  0  0  0
   -2.4000   -4.1569    0.0000 C   0  0  0  0  0  0  0  0  0  0  0  0
   -0.8000   -4.1569    0.0000 C   0  0  0  0  0  0  0  0  0  0  0  0
    0.0000   -2.7713    0.0000 C   0  0  0  0  0  0  0  0  0  0  0  0
   -0.8000   -1.3856    0.0000 C   0  0  0  0  0  0  0  0  0  0  0  0
    0.0000    0.0000    0.0000 C   0  0  0  0  0  0  0  0  0  0  0  0
    1.6000    0.0000    0.0000 N   0  0  0  0  0  0  0  0  0  0  0  0
    2.4000   -1.3856    0.0000 C   0  0  0  0  0  0  0  0  0  0  0  0
    4.0000   -1.3856    0.0000 C   0  0  0  0  0  0  0  0  0  0  0  0
    4.8000    0.0000    0.0000 C   0  0  0  0  0  0  0  0  0  0  0  0
    6.3650    0.3327    0.0000 S   0  0  0  0  0  0  0  0  0  0  0  0
    6.5323    1.9239    0.0000 C   0  0  0  0  0  0  0  0  0  0  0  0
    5.0706    2.5747    0.0000 C   0  0  0  0  0  0  0  0  0  0  0  0
    4.0000    1.3856    0.0000 C   0  0  0  0  0  0  0  0  0  0  0  0
    2.4000    1.3856    0.0000 C   0  0  0  0  0  0  0  0  0  0  0  0
   -0.8000    1.3856    0.0000 C   0  0  0  0  0  0  0  0  0  0  0  0
    0.0000    2.7713    0.0000 O   0  0  0  0  0  0  0  0  0  0  0  0
   -2.4000    1.3856    0.0000 O   0  0  0  0  0  0  0  0  0  0  0  0
   -3.2000    2.7713    0.0000 C   0  0  0  0  0  0  0  0  0  0  0  0
  1  2  1  0  0  0  0
  2  3  1  0  0  0  0
  2  7  2  0  0  0  0
  3  4  2  0  0  0  0
  4  5  1  0  0  0  0
  5  6  2  0  0  0  0
  6  7  1  0  0  0  0
  8  7  1  1  0  0  0
  8  9  1  0  0  0  0
  8 18  1  0  0  0  0
  9 10  1  1  0  0  0
  9 17  1  0  0  0  0
 10 11  1  0  0  0  0
 11 12  1  0  0  0  0
 12 13  1  0  0  0  0
 12 16  2  0  0  0  0
 13 14  1  0  0  0  0
 14 15  2  0  0  0  0
 15 16  1  0  0  0  0
 16 17  1  0  0  0  0
 18 19  2  0  0  0  0
 18 20  1  0  0  0  0
 20 21  1  0  0  0  0
M  END
> <Acceptable>
true

> <IC50>
N/A

$$$$

Generated by Molecular Materials Informatics

 22 24  0  0  0  0  0  0  0  0999 V2000
   -4.5845   -2.8750    0.0000 Cl  0  0  0  0  0  0  0  0  0  0  0  0
   -2.9845   -2.8750    0.0000 C   0  0  0  0  0  0  0  0  0  0  0  0
   -2.1845   -4.2607    0.0000 C   0  0  0  0  0  0  0  0  0  0  0  0
   -0.5845   -4.2607    0.0000 C   0  0  0  0  0  0  0  0  0  0  0  0
    0.2155   -2.8750    0.0000 C   0  0  0  0  0  0  0  0  0  0  0  0
    1.7976   -3.1135    0.0000 N   0  0  0  0  0  0  0  0  0  0  0  0
    2.9705   -2.0252    0.0000 C   0  0  0  0  0  0  0  0  0  0  0  0
    4.4599   -2.6098    0.0000 O   0  0  0  0  0  0  0  0  0  0  0  0
    2.8509   -0.4297    0.0000 C   0  0  0  0  0  0  0  0  0  0  0  0
    1.5289    0.4716    0.0000 N   0  0  0  0  0  0  0  0  0  0  0  0
    0.0000    0.0000    0.0000 C   0  0  0  0  0  0  0  0  0  0  0  0
   -0.5845   -1.4894    0.0000 C   0  0  0  0  0  0  0  0  0  0  0  0
   -2.1845   -1.4894    0.0000 C   0  0  0  0  0  0  0  0  0  0  0  0
   -1.0883    1.1729    0.0000 C   0  0  0  0  0  0  0  0  0  0  0  0
   -0.6167    2.7018    0.0000 C   0  0  0  0  0  0  0  0  0  0  0  0
   -1.7049    3.8747    0.0000 C   0  0  0  0  0  0  0  0  0  0  0  0
   -3.2648    3.5187    0.0000 C   0  0  0  0  0  0  0  0  0  0  0  0
   -3.7364    1.9897    0.0000 C   0  0  0  0  0  0  0  0  0  0  0  0
   -2.6482    0.8169    0.0000 C   0  0  0  0  0  0  0  0  0  0  0  0
    4.2365    0.3703    0.0000 C   0  0  0  0  0  0  0  0  0  0  0  0
    5.6222   -0.4297    0.0000 O   0  0  0  0  0  0  0  0  0  0  0  0
    4.2365    1.9703    0.0000 O   0  0  0  0  0  0  0  0  0  0  0  0
  1  2  1  0  0  0  0
  2  3  1  0  0  0  0
  2 13  2  0  0  0  0
  3  4  2  0  0  0  0
  4  5  1  0  0  0  0
  5  6  1  0  0  0  0
  5 12  2  0  0  0  0
  6  7  1  0  0  0  0
  7  8  2  0  0  0  0
  7  9  1  0  0  0  0
  9 10  1  0  0  0  0
  9 20  1  6  0  0  0
 10 11  2  0  0  0  0
 11 12  1  0  0  0  0
 11 14  1  0  0  0  0
 12 13  1  0  0  0  0
 14 15  1  0  0  0  0
 14 19  2  0  0  0  0
 15 16  2  0  0  0  0
 16 17  1  0  0  0  0
 17 18  2  0  0  0  0
 18 19  1  0  0  0  0
 20 21  2  0  0  0  0
 20 22  1  0  0  0  0
M  END
> <Acceptable>
true

> <IC50>
N/A

$$$$

Generated by Molecular Materials Informatics

 25 28  0  0  0  0  0  0  0  0999 V2000
   -0.1972   -3.8541    0.0000 Cl  0  0  0  0  0  0  0  0  0  0  0  0
   -1.2257   -2.6285    0.0000 C   0  0  0  0  0  0  0  0  0  0  0  0
   -2.6113   -3.4285    0.0000 C   0  0  0  0  0  0  0  0  0  0  0  0
   -3.9970   -2.6285    0.0000 C   0  0  0  0  0  0  0  0  0  0  0  0
   -3.9970   -1.0285    0.0000 C   0  0  0  0  0  0  0  0  0  0  0  0
   -2.6113   -0.2285    0.0000 C   0  0  0  0  0  0  0  0  0  0  0  0
   -1.2257   -1.0285    0.0000 C   0  0  0  0  0  0  0  0  0  0  0  0
    0.0000    0.0000    0.0000 C   0  0  0  0  0  0  0  0  0  0  0  0
    1.2257    1.0285    0.0000 N   0  0  0  0  0  0  0  0  0  0  0  0
    2.7781    0.6414    0.0000 C   0  0  0  0  0  0  0  0  0  0  0  0
    3.6260    1.9983    0.0000 N   0  0  0  0  0  0  0  0  0  0  0  0
    2.5976    3.2239    0.0000 C   0  0  0  0  0  0  0  0  0  0  0  0
    1.1141    2.6246    0.0000 C   0  0  0  0  0  0  0  0  0  0  0  0
   -1.0285    1.2257    0.0000 C   0  0  0  0  0  0  0  0  0  0  0  0
   -0.4812    2.7292    0.0000 C   0  0  0  0  0  0  0  0  0  0  0  0
   -1.5097    3.9548    0.0000 C   0  0  0  0  0  0  0  0  0  0  0  0
   -3.0854    3.6770    0.0000 C   0  0  0  0  0  0  0  0  0  0  0  0
   -3.6326    2.1735    0.0000 C   0  0  0  0  0  0  0  0  0  0  0  0
   -2.6042    0.9478    0.0000 C   0  0  0  0  0  0  0  0  0  0  0  0
    1.0285   -1.2257    0.0000 C   0  0  0  0  0  0  0  0  0  0  0  0
    2.6042   -0.9478    0.0000 C   0  0  0  0  0  0  0  0  0  0  0  0
    3.6326   -2.1735    0.0000 C   0  0  0  0  0  0  0  0  0  0  0  0
    3.0854   -3.6770    0.0000 C   0  0  0  0  0  0  0  0  0  0  0  0
    1.5097   -3.9549    0.0000 C   0  0  0  0  0  0  0  0  0  0  0  0
    0.4812   -2.7292    0.0000 C   0  0  0  0  0  0  0  0  0  0  0  0
  1  2  1  0  0  0  0
  2  3  1  0  0  0  0
  2  7  2  0  0  0  0
  3  4  2  0  0  0  0
  4  5  1  0  0  0  0
  5  6  2  0  0  0  0
  6  7  1  0  0  0  0
  7  8  1  0  0  0  0
  8  9  1  0  0  0  0
  8 14  1  0  0  0  0
  8 20  1  0  0  0  0
  9 10  1  0  0  0  0
  9 13  1  0  0  0  0
 10 11  2  0  0  0  0
 11 12  1  0  0  0  0
 12 13  2  0  0  0  0
 14 15  1  0  0  0  0
 14 19  2  0  0  0  0
 15 16  2  0  0  0  0
 16 17  1  0  0  0  0
 17 18  2  0  0  0  0
 18 19  1  0  0  0  0
 20 21  1  0  0  0  0
 20 25  2  0  0  0  0
 21 22  2  0  0  0  0
 22 23  1  0  0  0  0
 23 24  2  0  0  0  0
 24 25  1  0  0  0  0
M  END
> <Acceptable>
false

> <IC50>
3.02

$$$$

Generated by Molecular Materials Informatics

 23 26  0  0  0  0  0  0  0  0999 V2000
   -5.9550    3.6211    0.0000 Cl  0  0  0  0  0  0  0  0  0  0  0  0
   -5.1550    2.2355    0.0000 C   0  0  0  0  0  0  0  0  0  0  0  0
   -5.9550    0.8498    0.0000 C   0  0  0  0  0  0  0  0  0  0  0  0
   -5.1550   -0.5358    0.0000 C   0  0  0  0  0  0  0  0  0  0  0  0
   -3.5550   -0.5358    0.0000 C   0  0  0  0  0  0  0  0  0  0  0  0
   -2.9705   -2.0252    0.0000 N   0  0  0  0  0  0  0  0  0  0  0  0
   -1.4415   -2.4968    0.0000 C   0  0  0  0  0  0  0  0  0  0  0  0
   -1.3220   -4.0924    0.0000 C   0  0  0  0  0  0  0  0  0  0  0  0
    0.1196   -4.7866    0.0000 C   0  0  0  0  0  0  0  0  0  0  0  0
    1.4416   -3.8853    0.0000 C   0  0  0  0  0  0  0  0  0  0  0  0
    1.3220   -2.2897    0.0000 C   0  0  0  0  0  0  0  0  0  0  0  0
   -0.1196   -1.5955    0.0000 C   0  0  0  0  0  0  0  0  0  0  0  0
    0.0000    0.0000    0.0000 C   0  0  0  0  0  0  0  0  0  0  0  0
   -1.1729    1.0883    0.0000 N   0  0  0  0  0  0  0  0  0  0  0  0
   -2.7550    0.8498    0.0000 C   0  0  0  0  0  0  0  0  0  0  0  0
   -3.5550    2.2355    0.0000 C   0  0  0  0  0  0  0  0  0  0  0  0
    1.4894    0.5845    0.0000 N   0  0  0  0  0  0  0  0  0  0  0  0
    2.7403   -0.4130    0.0000 C   0  0  0  0  0  0  0  0  0  0  0  0
    4.2297    0.1715    0.0000 C   0  0  0  0  0  0  0  0  0  0  0  0
    4.4682    1.7536    0.0000 N   0  0  0  0  0  0  0  0  0  0  0  0
    5.9576    2.3382    0.0000 C   0  0  0  0  0  0  0  0  0  0  0  0
    3.2173    2.7512    0.0000 C   0  0  0  0  0  0  0  0  0  0  0  0
    1.7279    2.1667    0.0000 C   0  0  0  0  0  0  0  0  0  0  0  0
  1  2  1  0  0  0  0
  2  3  1  0  0  0  0
  2 16  2  0  0  0  0
  3  4  2  0  0  0  0
  4  5  1  0  0  0  0
  5  6  1  0  0  0  0
  5 15  2  0  0  0  0
  6  7  1  0  0  0  0
  7  8  1  0  0  0  0
  7 12  2  0  0  0  0
  8  9  2  0  0  0  0
  9 10  1  0  0  0  0
 10 11  2  0  0  0  0
 11 12  1  0  0  0  0
 12 13  1  0  0  0  0
 13 14  2  0  0  0  0
 13 17  1  0  0  0  0
 14 15  1  0  0  0  0
 15 16  1  0  0  0  0
 17 18  1  0  0  0  0
 17 23  1  0  0  0  0
 18 19  1  0  0  0  0
 19 20  1  0  0  0  0
 20 21  1  0  0  0  0
 20 22  1  0  0  0  0
 22 23  1  0  0  0  0
M  END
> <Acceptable>
false

> <IC50>
0.256

$$$$

Generated by Molecular Materials Informatics

 24 27  0  0  0  0  0  0  0  0999 V2000
   -5.9550    3.6211    0.0000 Cl  0  0  0  0  0  0  0  0  0  0  0  0
   -5.1550    2.2355    0.0000 C   0  0  0  0  0  0  0  0  0  0  0  0
   -5.9550    0.8498    0.0000 C   0  0  0  0  0  0  0  0  0  0  0  0
   -5.1550   -0.5358    0.0000 C   0  0  0  0  0  0  0  0  0  0  0  0
   -3.5550   -0.5358    0.0000 C   0  0  0  0  0  0  0  0  0  0  0  0
   -2.9705   -2.0252    0.0000 N   0  0  0  0  0  0  0  0  0  0  0  0
   -1.4415   -2.4968    0.0000 C   0  0  0  0  0  0  0  0  0  0  0  0
   -1.3220   -4.0924    0.0000 C   0  0  0  0  0  0  0  0  0  0  0  0
    0.1196   -4.7866    0.0000 C   0  0  0  0  0  0  0  0  0  0  0  0
    1.4416   -3.8853    0.0000 C   0  0  0  0  0  0  0  0  0  0  0  0
    1.3220   -2.2897    0.0000 C   0  0  0  0  0  0  0  0  0  0  0  0
   -0.1196   -1.5955    0.0000 C   0  0  0  0  0  0  0  0  0  0  0  0
    0.0000    0.0000    0.0000 C   0  0  0  0  0  0  0  0  0  0  0  0
   -1.1729    1.0883    0.0000 N   0  0  0  0  0  0  0  0  0  0  0  0
   -0.7013    2.6172    0.0000 O   0  0  0  0  0  0  0  0  0  0  0  0
   -2.7550    0.8498    0.0000 C   0  0  0  0  0  0  0  0  0  0  0  0
   -3.5550    2.2355    0.0000 C   0  0  0  0  0  0  0  0  0  0  0  0
    1.4894    0.5845    0.0000 N   0  0  0  0  0  0  0  0  0  0  0  0
    2.7403   -0.4130    0.0000 C   0  0  0  0  0  0  0  0  0  0  0  0
    4.2297    0.1715    0.0000 C   0  0  0  0  0  0  0  0  0  0  0  0
    4.4682    1.7536    0.0000 N   0  0  0  0  0  0  0  0  0  0  0  0
    5.9576    2.3382    0.0000 C   0  0  0  0  0  0  0  0  0  0  0  0
    3.2173    2.7512    0.0000 C   0  0  0  0  0  0  0  0  0  0  0  0
    1.7279    2.1667    0.0000 C   0  0  0  0  0  0  0  0  0  0  0  0
  1  2  1  0  0  0  0
  2  3  1  0  0  0  0
  2 17  2  0  0  0  0
  3  4  2  0  0  0  0
  4  5  1  0  0  0  0
  5  6  1  0  0  0  0
  5 16  2  0  0  0  0
  6  7  1  0  0  0  0
  7  8  1  0  0  0  0
  7 12  2  0  0  0  0
  8  9  2  0  0  0  0
  9 10  1  0  0  0  0
 10 11  2  0  0  0  0
 11 12  1  0  0  0  0
 12 13  1  0  0  0  0
 13 14  1  6  0  0  0
 13 18  1  0  0  0  0
 14 15  1  0  0  0  0
 14 16  1  0  0  0  0
 16 17  1  0  0  0  0
 18 19  1  1  0  0  0
 18 24  1  0  0  0  0
 19 20  1  0  0  0  0
 20 21  1  0  0  0  0
 21 22  1  6  0  0  0
 21 23  1  0  0  0  0
 23 24  1  0  0  0  0
M  END
> <Acceptable>
true

> <IC50>
133.3

$$$$

Generated by Molecular Materials Informatics

 23 25  0  0  0  0  0  0  0  0999 V2000
    4.0555    1.3778    0.0000 O   0  0  0  0  0  0  0  0  0  0  0  0
    4.0540   -0.2222    0.0000 C   0  0  0  0  0  0  0  0  0  0  0  0
    2.6675   -1.0208    0.0000 O   0  0  0  0  0  0  0  0  0  0  0  0
    1.2827   -0.2195    0.0000 C   0  0  0  0  0  0  0  0  0  0  0  0
    0.2580    1.0194    0.0000 C   0  0  0  0  0  0  0  0  0  0  0  0
   -1.2870    0.0927    0.0000 C   0  0  0  0  0  0  0  0  0  0  0  0
   -2.6551    0.2879    0.0000 N   0  0  0  0  0  0  0  0  0  0  0  0
   -4.0519    1.0682    0.0000 C   0  0  0  0  0  0  0  0  0  0  0  0
   -1.6320   -0.9422    0.0000 C   0  0  0  0  0  0  0  0  0  0  0  0
   -1.8145   -2.6427    0.0000 C   0  0  0  0  0  0  0  0  0  0  0  0
   -1.1381   -1.4082    0.0000 C   0  0  0  0  0  0  0  0  0  0  0  0
    0.0000    0.0000    0.0000 C   0  0  0  0  0  0  0  0  0  0  0  0
    0.2818   -1.5750    0.0000 C   0  0  0  0  0  0  0  0  0  0  0  0
   -0.5147   -2.9626    0.0000 O   0  0  0  0  0  0  0  0  0  0  0  0
    1.7867   -2.1184    0.0000 O   0  0  0  0  0  0  0  0  0  0  0  0
    2.0686   -3.6934    0.0000 C   0  0  0  0  0  0  0  0  0  0  0  0
    0.8455   -4.7249    0.0000 C   0  0  0  0  0  0  0  0  0  0  0  0
    5.4388   -1.0236    0.0000 C   0  0  0  0  0  0  0  0  0  0  0  0
    6.8252   -0.2249    0.0000 C   0  0  0  0  0  0  0  0  0  0  0  0
    8.2101   -1.0263    0.0000 C   0  0  0  0  0  0  0  0  0  0  0  0
    8.2085   -2.6263    0.0000 C   0  0  0  0  0  0  0  0  0  0  0  0
    6.8221   -3.4249    0.0000 C   0  0  0  0  0  0  0  0  0  0  0  0
    5.4373   -2.6236    0.0000 C   0  0  0  0  0  0  0  0  0  0  0  0
  1  2  2  0  0  0  0
  2  3  1  0  0  0  0
  2 18  1  0  0  0  0
  4  3  1  6  0  0  0
  4  5  1  0  0  0  0
  4 12  1  0  0  0  0
  5  6  1  0  0  0  0
  6  7  1  0  0  0  0
  6 11  1  0  0  0  0
  7  8  1  6  0  0  0
  7  9  1  0  0  0  0
  9 10  1  1  0  0  0
  9 12  1  0  0  0  0
 10 11  1  0  0  0  0
 12 13  1  1  0  0  0
 13 14  2  0  0  0  0
 13 15  1  0  0  0  0
 15 16  1  0  0  0  0
 16 17  1  0  0  0  0
 18 19  1  0  0  0  0
 18 23  2  0  0  0  0
 19 20  2  0  0  0  0
 20 21  1  0  0  0  0
 21 22  2  0  0  0  0
 22 23  1  0  0  0  0
M  END
> <Acceptable>
false

> <IC50>
1.2

$$$$

Generated by Molecular Materials Informatics

 22 24  0  0  0  0  0  0  0  0999 V2000
    4.0555    1.3778    0.0000 O   0  0  0  0  0  0  0  0  0  0  0  0
    4.0540   -0.2222    0.0000 C   0  0  0  0  0  0  0  0  0  0  0  0
    2.6675   -1.0208    0.0000 O   0  0  0  0  0  0  0  0  0  0  0  0
    1.2827   -0.2195    0.0000 C   0  0  0  0  0  0  0  0  0  0  0  0
    0.2580    1.0194    0.0000 C   0  0  0  0  0  0  0  0  0  0  0  0
   -1.2870    0.0927    0.0000 C   0  0  0  0  0  0  0  0  0  0  0  0
   -2.6551    0.2879    0.0000 N   0  0  0  0  0  0  0  0  0  0  0  0
   -4.0519    1.0682    0.0000 C   0  0  0  0  0  0  0  0  0  0  0  0
   -1.6320   -0.9422    0.0000 C   0  0  0  0  0  0  0  0  0  0  0  0
   -1.8145   -2.6427    0.0000 C   0  0  0  0  0  0  0  0  0  0  0  0
   -1.1381   -1.4082    0.0000 C   0  0  0  0  0  0  0  0  0  0  0  0
    0.0000    0.0000    0.0000 C   0  0  0  0  0  0  0  0  0  0  0  0
    0.2818   -1.5750    0.0000 C   0  0  0  0  0  0  0  0  0  0  0  0
   -0.5147   -2.9626    0.0000 O   0  0  0  0  0  0  0  0  0  0  0  0
    1.7867   -2.1184    0.0000 O   0  0  0  0  0  0  0  0  0  0  0  0
    2.0686   -3.6934    0.0000 C   0  0  0  0  0  0  0  0  0  0  0  0
    5.4388   -1.0236    0.0000 C   0  0  0  0  0  0  0  0  0  0  0  0
    6.8252   -0.2249    0.0000 C   0  0  0  0  0  0  0  0  0  0  0  0
    8.2101   -1.0263    0.0000 C   0  0  0  0  0  0  0  0  0  0  0  0
    8.2085   -2.6263    0.0000 C   0  0  0  0  0  0  0  0  0  0  0  0
    6.8221   -3.4249    0.0000 C   0  0  0  0  0  0  0  0  0  0  0  0
    5.4373   -2.6236    0.0000 C   0  0  0  0  0  0  0  0  0  0  0  0
  1  2  2  0  0  0  0
  2  3  1  0  0  0  0
  2 17  1  0  0  0  0
  4  3  1  1  0  0  0
  4  5  1  0  0  0  0
  4 12  1  0  0  0  0
  5  6  1  0  0  0  0
  6  7  1  0  0  0  0
  6 11  1  6  0  0  0
  7  8  1  1  0  0  0
  7  9  1  0  0  0  0
  9 10  1  1  0  0  0
  9 12  1  0  0  0  0
 10 11  1  0  0  0  0
 12 13  1  6  0  0  0
 13 14  2  0  0  0  0
 13 15  1  0  0  0  0
 15 16  1  0  0  0  0
 17 18  1  0  0  0  0
 17 22  2  0  0  0  0
 18 19  2  0  0  0  0
 19 20  1  0  0  0  0
 20 21  2  0  0  0  0
 21 22  1  0  0  0  0
M  END
> <Acceptable>
false

> <IC50>
7.2

$$$$

Generated by Molecular Materials Informatics

 22 26  0  0  0  0  0  0  0  0999 V2000
   -3.2000    2.7713    0.0000 O   0  0  0  0  0  0  0  0  0  0  0  0
   -2.4000    1.3856    0.0000 C   0  0  0  0  0  0  0  0  0  0  0  0
   -3.2000    0.0000    0.0000 C   0  0  0  0  0  0  0  0  0  0  0  0
   -2.4000   -1.3856    0.0000 C   0  0  0  0  0  0  0  0  0  0  0  0
   -0.8000   -1.3856    0.0000 C   0  0  0  0  0  0  0  0  0  0  0  0
    0.0000   -2.7713    0.0000 C   0  0  0  0  0  0  0  0  0  0  0  0
    1.1620   -2.4716    0.0000 N   0  0  0  0  0  0  0  0  0  0  0  0
    2.1827   -3.7037    0.0000 C   0  0  0  0  0  0  0  0  0  0  0  0
    1.6725   -1.3856    0.0000 C   0  0  0  0  0  0  0  0  0  0  0  0
    1.1620   -0.2997    0.0000 C   0  0  0  0  0  0  0  0  0  0  0  0
    0.0000    0.0000    0.0000 C   0  0  0  0  0  0  0  0  0  0  0  0
    1.6000    0.0000    0.0000 C   0  0  0  0  0  0  0  0  0  0  0  0
    2.4000   -1.3856    0.0000 C   0  0  0  0  0  0  0  0  0  0  0  0
    4.0000   -1.3856    0.0000 C   0  0  0  0  0  0  0  0  0  0  0  0
    4.8000    0.0000    0.0000 C   0  0  0  0  0  0  0  0  0  0  0  0
    4.0000    1.3856    0.0000 C   0  0  0  0  0  0  0  0  0  0  0  0
    4.8000    2.7713    0.0000 O   0  0  0  0  0  0  0  0  0  0  0  0
    6.4000    2.7713    0.0000 C   0  0  0  0  0  0  0  0  0  0  0  0
    2.4000    1.3856    0.0000 C   0  0  0  0  0  0  0  0  0  0  0  0
    0.8000    3.1745    0.0000 O   0  0  0  0  0  0  0  0  0  0  0  0
   -0.8000    1.3856    0.0000 C   0  0  0  0  0  0  0  0  0  0  0  0
    1.6000   -2.7713    0.0000 C   0  0  0  0  0  0  0  0  0  0  0  0
  2  1  1  6  0  0  0
  2  3  1  0  0  0  0
  2 21  1  0  0  0  0
  3  4  2  0  0  0  0
  5  4  1  6  0  0  0
  5  6  1  0  0  0  0
  5 11  1  0  0  0  0
  6  7  1  0  0  0  0
  6 22  1  6  0  0  0
  7  8  1  1  0  0  0
  7  9  1  0  0  0  0
  9 10  1  0  0  0  0
 11 10  1  1  0  0  0
 11 12  1  0  0  0  0
 11 21  1  0  0  0  0
 12 13  1  0  0  0  0
 12 19  2  0  0  0  0
 13 14  2  0  0  0  0
 13 22  1  0  0  0  0
 14 15  1  0  0  0  0
 15 16  2  0  0  0  0
 16 17  1  0  0  0  0
 16 19  1  0  0  0  0
 17 18  1  0  0  0  0
 19 20  1  0  0  0  0
 21 20  1  6  0  0  0
M  END
> <Acceptable>
true

> <IC50>
301

$$$$

Generated by Molecular Materials Informatics

 38 43  0  0  0  0  0  0  0  0999 V2000
    3.6919   -2.8636    0.0000 O   0  0  0  0  0  0  0  0  0  0  0  0
   10.9804   -2.0655    0.0000 O   0  0  0  0  0  0  0  0  0  0  0  0
    2.8750   -0.2155    0.0000 N   0  0  0  0  0  0  0  0  0  0  0  0
    0.0706    4.1525    0.0000 N   0  0  0  0  0  0  0  0  0  0  0  0
   -1.6902    2.2547    0.0000 N   0  0  0  0  0  0  0  0  0  0  0  0
   10.1636    0.5827    0.0000 N   0  0  0  0  0  0  0  0  0  0  0  0
    2.4453    2.6354    0.0000 C   0  0  0  0  0  0  0  0  0  0  0  0
    3.3466    1.3135    0.0000 C   0  0  0  0  0  0  0  0  0  0  0  0
    0.8498    2.7550    0.0000 C   0  0  0  0  0  0  0  0  0  0  0  0
   -0.2385    1.5821    0.0000 C   0  0  0  0  0  0  0  0  0  0  0  0
    1.3856   -0.8000    0.0000 C   0  0  0  0  0  0  0  0  0  0  0  0
    0.0000    0.0000    0.0000 C   0  0  0  0  0  0  0  0  0  0  0  0
   -1.4992    3.8433    0.0000 C   0  0  0  0  0  0  0  0  0  0  0  0
    4.0479   -1.3037    0.0000 C   0  0  0  0  0  0  0  0  0  0  0  0
    1.3856   -2.4000    0.0000 C   0  0  0  0  0  0  0  0  0  0  0  0
   -1.3856   -0.8000    0.0000 C   0  0  0  0  0  0  0  0  0  0  0  0
    5.5768   -0.8321    0.0000 C   0  0  0  0  0  0  0  0  0  0  0  0
    0.0000   -3.2000    0.0000 C   0  0  0  0  0  0  0  0  0  0  0  0
   -1.3856   -2.4000    0.0000 C   0  0  0  0  0  0  0  0  0  0  0  0
   -2.6721    4.9315    0.0000 C   0  0  0  0  0  0  0  0  0  0  0  0
    5.9329    0.7278    0.0000 C   0  0  0  0  0  0  0  0  0  0  0  0
    6.7497   -1.9204    0.0000 C   0  0  0  0  0  0  0  0  0  0  0  0
    8.6347    0.1111    0.0000 C   0  0  0  0  0  0  0  0  0  0  0  0
    7.4618    1.1994    0.0000 C   0  0  0  0  0  0  0  0  0  0  0  0
    8.2786   -1.4488    0.0000 C   0  0  0  0  0  0  0  0  0  0  0  0
   12.8654   -0.0340    0.0000 C   0  0  0  0  0  0  0  0  0  0  0  0
   13.2214    1.5259    0.0000 C   0  0  0  0  0  0  0  0  0  0  0  0
   11.3365   -0.5056    0.0000 C   0  0  0  0  0  0  0  0  0  0  0  0
   12.0485    2.6142    0.0000 C   0  0  0  0  0  0  0  0  0  0  0  0
   14.0383   -1.1222    0.0000 C   0  0  0  0  0  0  0  0  0  0  0  0
   14.7503    1.9975    0.0000 C   0  0  0  0  0  0  0  0  0  0  0  0
   15.5672   -0.6506    0.0000 C   0  0  0  0  0  0  0  0  0  0  0  0
   15.9232    0.9093    0.0000 C   0  0  0  0  0  0  0  0  0  0  0  0
   10.5196    2.1426    0.0000 C   0  0  0  0  0  0  0  0  0  0  0  0
   12.4046    4.1741    0.0000 C   0  0  0  0  0  0  0  0  0  0  0  0
    9.3467    3.2309    0.0000 C   0  0  0  0  0  0  0  0  0  0  0  0
   11.2317    5.2624    0.0000 C   0  0  0  0  0  0  0  0  0  0  0  0
    9.7028    4.7908    0.0000 C   0  0  0  0  0  0  0  0  0  0  0  0
  1 14  2  0  0  0  0
  2 28  2  0  0  0  0
  3  8  1  0  0  0  0
  3 11  1  0  0  0  0
  3 14  1  0  0  0  0
  4  9  1  0  0  0  0
  4 13  1  0  0  0  0
  5 10  1  0  0  0  0
  5 13  2  0  0  0  0
  6 23  1  0  0  0  0
  6 28  1  0  0  0  0
  7  8  1  0  0  0  0
  7  9  1  0  0  0  0
  9 10  2  0  0  0  0
 10 12  1  0  0  0  0
 11 12  2  0  0  0  0
 11 15  1  0  0  0  0
 12 16  1  0  0  0  0
 13 20  1  0  0  0  0
 14 17  1  0  0  0  0
 15 18  2  0  0  0  0
 16 19  2  0  0  0  0
 17 21  2  0  0  0  0
 17 22  1  0  0  0  0
 18 19  1  0  0  0  0
 21 24  1  0  0  0  0
 22 25  2  0  0  0  0
 23 24  2  0  0  0  0
 23 25  1  0  0  0  0
 26 27  2  0  0  0  0
 26 28  1  0  0  0  0
 26 30  1  0  0  0  0
 27 29  1  0  0  0  0
 27 31  1  0  0  0  0
 29 34  2  0  0  0  0
 29 35  1  0  0  0  0
 30 32  2  0  0  0  0
 31 33  2  0  0  0  0
 32 33  1  0  0  0  0
 34 36  1  0  0  0  0
 35 37  2  0  0  0  0
 36 38  2  0  0  0  0
 37 38  1  0  0  0  0
M  END
> <Acceptable>
false

> <IC50>
2.24

$$$$

Generated by Molecular Materials Informatics

 34 37  0  0  0  0  0  0  0  0999 V2000
    9.6995   -2.4000    0.0000 O   0  0  0  0  0  0  0  0  0  0  0  0
   11.0851   -1.6000    0.0000 C   0  0  0  0  0  0  0  0  0  0  0  0
   12.4708   -2.4000    0.0000 C   0  0  0  0  0  0  0  0  0  0  0  0
   13.8564   -1.6000    0.0000 C   0  0  0  0  0  0  0  0  0  0  0  0
   13.8564    0.0000    0.0000 O   0  0  0  0  0  0  0  0  0  0  0  0
   12.4708    0.8000    0.0000 C   0  0  0  0  0  0  0  0  0  0  0  0
   12.4708    2.4000    0.0000 C   0  0  0  0  0  0  0  0  0  0  0  0
   11.0851    3.2000    0.0000 C   0  0  0  0  0  0  0  0  0  0  0  0
    9.6995    2.4000    0.0000 C   0  0  0  0  0  0  0  0  0  0  0  0
    9.6995    0.8000    0.0000 C   0  0  0  0  0  0  0  0  0  0  0  0
    8.3138    0.0000    0.0000 O   0  0  0  0  0  0  0  0  0  0  0  0
    6.9282    0.8000    0.0000 C   0  0  0  0  0  0  0  0  0  0  0  0
    5.5426    0.0000    0.0000 C   0  0  0  0  0  0  0  0  0  0  0  0
    5.5426   -1.6000    0.0000 O   0  0  0  0  0  0  0  0  0  0  0  0
    4.1569    0.8000    0.0000 C   0  0  0  0  0  0  0  0  0  0  0  0
    2.7713    0.0000    0.0000 O   0  0  0  0  0  0  0  0  0  0  0  0
    1.3856    0.8000    0.0000 C   0  0  0  0  0  0  0  0  0  0  0  0
    1.3856    2.4000    0.0000 C   0  0  0  0  0  0  0  0  0  0  0  0
    0.0000    3.2000    0.0000 C   0  0  0  0  0  0  0  0  0  0  0  0
   -1.3856    2.4000    0.0000 C   0  0  0  0  0  0  0  0  0  0  0  0
   -1.3856    0.8000    0.0000 C   0  0  0  0  0  0  0  0  0  0  0  0
   -2.7713    0.0000    0.0000 O   0  0  0  0  0  0  0  0  0  0  0  0
   -2.7713   -1.6000    0.0000 C   0  0  0  0  0  0  0  0  0  0  0  0
   -1.3856   -2.4000    0.0000 C   0  0  0  0  0  0  0  0  0  0  0  0
    0.0000   -1.6000    0.0000 C   0  0  0  0  0  0  0  0  0  0  0  0
    1.3856   -2.4000    0.0000 O   0  0  0  0  0  0  0  0  0  0  0  0
    0.0000    0.0000    0.0000 C   0  0  0  0  0  0  0  0  0  0  0  0
   -4.1569   -2.4000    0.0000 C   0  0  0  0  0  0  0  0  0  0  0  0
   -5.5426   -1.6000    0.0000 O   0  0  0  0  0  0  0  0  0  0  0  0
   -4.1569   -4.0000    0.0000 O   0  0  0  0  0  0  0  0  0  0  0  0
   11.0851    0.0000    0.0000 C   0  0  0  0  0  0  0  0  0  0  0  0
   15.2420   -2.4000    0.0000 C   0  0  0  0  0  0  0  0  0  0  0  0
   15.2420   -4.0000    0.0000 O   0  0  0  0  0  0  0  0  0  0  0  0
   16.6277   -1.6000    0.0000 O   0  0  0  0  0  0  0  0  0  0  0  0
  1  2  2  0  0  0  0
  2  3  1  0  0  0  0
  2 31  1  0  0  0  0
  3  4  2  0  0  0  0
  4  5  1  0  0  0  0
  4 32  1  0  0  0  0
  5  6  1  0  0  0  0
  6  7  1  0  0  0  0
  6 31  2  0  0  0  0
  7  8  2  0  0  0  0
  8  9  1  0  0  0  0
  9 10  2  0  0  0  0
 10 11  1  0  0  0  0
 10 31  1  0  0  0  0
 11 12  1  0  0  0  0
 12 13  1  0  0  0  0
 13 14  1  6  0  0  0
 13 15  1  0  0  0  0
 15 16  1  0  0  0  0
 16 17  1  0  0  0  0
 17 18  1  0  0  0  0
 17 27  2  0  0  0  0
 18 19  2  0  0  0  0
 19 20  1  0  0  0  0
 20 21  2  0  0  0  0
 21 22  1  0  0  0  0
 21 27  1  0  0  0  0
 22 23  1  0  0  0  0
 23 24  2  0  0  0  0
 23 28  1  0  0  0  0
 24 25  1  0  0  0  0
 25 26  2  0  0  0  0
 25 27  1  0  0  0  0
 28 29  2  0  0  0  0
 28 30  1  0  0  0  0
 32 33  2  0  0  0  0
 32 34  1  0  0  0  0
M  END
> <Acceptable>
true

> <IC50>
N/A

$$$$

Generated by Molecular Materials Informatics

 23 25  0  0  0  0  0  0  0  0999 V2000
    1.6000    2.7713    0.0000 S   0  0  0  0  0  0  0  0  0  0  0  0
    0.0000    2.7713    0.0000 C   0  0  0  0  0  0  0  0  0  0  0  0
   -0.8000    4.1569    0.0000 C   0  0  0  0  0  0  0  0  0  0  0  0
   -2.4000    4.1569    0.0000 C   0  0  0  0  0  0  0  0  0  0  0  0
   -3.2000    2.7713    0.0000 C   0  0  0  0  0  0  0  0  0  0  0  0
   -2.4000    1.3856    0.0000 C   0  0  0  0  0  0  0  0  0  0  0  0
   -0.8000    1.3856    0.0000 C   0  0  0  0  0  0  0  0  0  0  0  0
    0.0000    0.0000    0.0000 N   0  0  0  0  0  0  0  0  0  0  0  0
   -0.8000   -1.3856    0.0000 C   0  0  0  0  0  0  0  0  0  0  0  0
   -2.4000   -1.3856    0.0000 C   0  0  0  0  0  0  0  0  0  0  0  0
   -3.2000    0.0000    0.0000 C   0  0  0  0  0  0  0  0  0  0  0  0
   -3.2000   -2.7713    0.0000 C   0  0  0  0  0  0  0  0  0  0  0  0
   -4.8000   -2.7713    0.0000 N   0  0  0  0  0  0  0  0  0  0  0  0
   -5.6000   -1.3856    0.0000 C   0  0  0  0  0  0  0  0  0  0  0  0
   -5.6000   -4.1569    0.0000 C   0  0  0  0  0  0  0  0  0  0  0  0
    1.6000    0.0000    0.0000 C   0  0  0  0  0  0  0  0  0  0  0  0
    2.4000   -1.3856    0.0000 C   0  0  0  0  0  0  0  0  0  0  0  0
    4.0000   -1.3856    0.0000 C   0  0  0  0  0  0  0  0  0  0  0  0
    4.8000   -2.7713    0.0000 C   0  0  0  0  0  0  0  0  0  0  0  0
    5.6000   -4.1569    0.0000 N   0  0  0  0  0  0  0  0  0  0  0  0
    4.8000    0.0000    0.0000 C   0  0  0  0  0  0  0  0  0  0  0  0
    4.0000    1.3856    0.0000 C   0  0  0  0  0  0  0  0  0  0  0  0
    2.4000    1.3856    0.0000 C   0  0  0  0  0  0  0  0  0  0  0  0
  1  2  1  0  0  0  0
  1 23  1  0  0  0  0
  2  3  1  0  0  0  0
  2  7  2  0  0  0  0
  3  4  2  0  0  0  0
  4  5  1  0  0  0  0
  5  6  2  0  0  0  0
  6  7  1  0  0  0  0
  7  8  1  0  0  0  0
  8  9  1  0  0  0  0
  8 16  1  0  0  0  0
  9 10  1  0  0  0  0
 10 11  1  1  0  0  0
 10 12  1  0  0  0  0
 12 13  1  0  0  0  0
 13 14  1  0  0  0  0
 13 15  1  0  0  0  0
 16 17  1  0  0  0  0
 16 23  2  0  0  0  0
 17 18  2  0  0  0  0
 18 19  1  0  0  0  0
 18 21  1  0  0  0  0
 19 20  3  0  0  0  0
 21 22  2  0  0  0  0
 22 23  1  0  0  0  0
M  END
> <Acceptable>
false

> <IC50>
0.87

$$$$

Generated by Molecular Materials Informatics

 23 25  0  0  0  0  0  0  0  0999 V2000
    1.6000    0.0000    0.0000 C   0  0  0  0  0  0  0  0  0  0  0  0
    0.0000    0.0000    0.0000 N   0  0  0  0  0  0  0  0  0  0  0  0
    2.4000   -1.3856    0.0000 C   0  0  0  0  0  0  0  0  0  0  0  0
    2.4000    1.3856    0.0000 C   0  0  0  0  0  0  0  0  0  0  0  0
   -0.8000   -1.3856    0.0000 C   0  0  0  0  0  0  0  0  0  0  0  0
   -0.8000    1.3856    0.0000 C   0  0  0  0  0  0  0  0  0  0  0  0
    1.6000   -2.7713    0.0000 S   0  0  0  0  0  0  0  0  0  0  0  0
    4.0000   -1.3856    0.0000 C   0  0  0  0  0  0  0  0  0  0  0  0
    4.0000    1.3856    0.0000 C   0  0  0  0  0  0  0  0  0  0  0  0
    0.0000   -2.7713    0.0000 C   0  0  0  0  0  0  0  0  0  0  0  0
   -2.4000   -1.3856    0.0000 C   0  0  0  0  0  0  0  0  0  0  0  0
   -2.4000    1.3856    0.0000 C   0  0  0  0  0  0  0  0  0  0  0  0
    4.8000    0.0000    0.0000 C   0  0  0  0  0  0  0  0  0  0  0  0
   -0.8000   -4.1569    0.0000 C   0  0  0  0  0  0  0  0  0  0  0  0
   -3.2000   -2.7713    0.0000 C   0  0  0  0  0  0  0  0  0  0  0  0
   -3.2000    2.7713    0.0000 C   0  0  0  0  0  0  0  0  0  0  0  0
   -3.2000    0.0000    0.0000 C   0  0  0  0  0  0  0  0  0  0  0  0
   -2.4000   -4.1569    0.0000 C   0  0  0  0  0  0  0  0  0  0  0  0
   -4.8000    2.7713    0.0000 N   0  0  0  0  0  0  0  0  0  0  0  0
   -5.6000    1.3856    0.0000 C   0  0  0  0  0  0  0  0  0  0  0  0
   -5.6000    4.1569    0.0000 C   0  0  0  0  0  0  0  0  0  0  0  0
    4.8000    2.7713    0.0000 C   0  0  0  0  0  0  0  0  0  0  0  0
    5.6000    4.1569    0.0000 N   0  0  0  0  0  0  0  0  0  0  0  0
  1  2  1  0  0  0  0
  1  3  2  0  0  0  0
  1  4  1  0  0  0  0
  2  5  1  0  0  0  0
  2  6  1  0  0  0  0
  3  7  1  0  0  0  0
  3  8  1  0  0  0  0
  4  9  2  0  0  0  0
  5 10  2  0  0  0  0
  5 11  1  0  0  0  0
  6 12  1  0  0  0  0
  7 10  1  0  0  0  0
  8 13  2  0  0  0  0
  9 13  1  0  0  0  0
  9 22  1  0  0  0  0
 10 14  1  0  0  0  0
 11 15  2  0  0  0  0
 12 16  1  0  0  0  0
 12 17  1  1  0  0  0
 14 18  2  0  0  0  0
 15 18  1  0  0  0  0
 16 19  1  0  0  0  0
 19 20  1  0  0  0  0
 19 21  1  0  0  0  0
 22 23  3  0  0  0  0
M  END
> <Acceptable>
false

> <IC50>
0.47

$$$$

Generated by Molecular Materials Informatics

 21 23  0  0  0  0  0  0  0  0999 V2000
   -5.4036   -1.2333    0.0000 N   0  0  0  0  0  0  0  0  0  0  0  0
   -5.7596    0.3266    0.0000 C   0  0  0  0  0  0  0  0  0  0  0  0
   -6.5765   -2.3216    0.0000 C   0  0  0  0  0  0  0  0  0  0  0  0
   -3.8747   -1.7049    0.0000 C   0  0  0  0  0  0  0  0  0  0  0  0
   -2.7018   -0.6167    0.0000 C   0  0  0  0  0  0  0  0  0  0  0  0
   -1.1729   -1.0883    0.0000 C   0  0  0  0  0  0  0  0  0  0  0  0
    0.0000    0.0000    0.0000 C   0  0  0  0  0  0  0  0  0  0  0  0
    1.4894   -0.5845    0.0000 C   0  0  0  0  0  0  0  0  0  0  0  0
    1.4894   -2.1845    0.0000 C   0  0  0  0  0  0  0  0  0  0  0  0
    2.8750   -2.9845    0.0000 C   0  0  0  0  0  0  0  0  0  0  0  0
    4.2607   -2.1845    0.0000 C   0  0  0  0  0  0  0  0  0  0  0  0
    4.2607   -0.5845    0.0000 C   0  0  0  0  0  0  0  0  0  0  0  0
    2.8750    0.2155    0.0000 C   0  0  0  0  0  0  0  0  0  0  0  0
    3.1135    1.7976    0.0000 C   0  0  0  0  0  0  0  0  0  0  0  0
    2.0252    2.9705    0.0000 C   0  0  0  0  0  0  0  0  0  0  0  0
    0.4297    2.8509    0.0000 C   0  0  0  0  0  0  0  0  0  0  0  0
   -0.2645    4.2924    0.0000 C   0  0  0  0  0  0  0  0  0  0  0  0
   -1.8600    4.4120    0.0000 C   0  0  0  0  0  0  0  0  0  0  0  0
   -2.7613    3.0900    0.0000 C   0  0  0  0  0  0  0  0  0  0  0  0
   -2.0671    1.6485    0.0000 C   0  0  0  0  0  0  0  0  0  0  0  0
   -0.4716    1.5289    0.0000 C   0  0  0  0  0  0  0  0  0  0  0  0
  1  2  1  0  0  0  0
  1  3  1  0  0  0  0
  1  4  1  0  0  0  0
  4  5  1  0  0  0  0
  5  6  1  0  0  0  0
  6  7  2  0  0  0  0
  7  8  1  0  0  0  0
  7 21  1  0  0  0  0
  8  9  1  0  0  0  0
  8 13  2  0  0  0  0
  9 10  2  0  0  0  0
 10 11  1  0  0  0  0
 11 12  2  0  0  0  0
 12 13  1  0  0  0  0
 13 14  1  0  0  0  0
 14 15  2  0  0  0  0
 15 16  1  0  0  0  0
 16 17  1  0  0  0  0
 16 21  2  0  0  0  0
 17 18  2  0  0  0  0
 18 19  1  0  0  0  0
 19 20  2  0  0  0  0
 20 21  1  0  0  0  0
M  END
> <Acceptable>
true

> <IC50>
N/A

$$$$

Generated by Molecular Materials Informatics

 14 14  0  0  0  0  0  0  0  0999 V2000
    4.2459   -3.5627    0.0000 Cl  0  0  0  0  0  0  0  0  0  0  0  0
    3.6986   -2.0592    0.0000 C   0  0  0  0  0  0  0  0  0  0  0  0
    2.1229   -1.7813    0.0000 C   0  0  0  0  0  0  0  0  0  0  0  0
    1.5757   -0.2778    0.0000 N   0  0  0  0  0  0  0  0  0  0  0  0
    0.0000    0.0000    0.0000 P   0  0  0  0  0  0  0  0  0  0  0  0
    0.5472    1.5035    0.0000 O   0  0  0  0  0  0  0  0  0  0  0  0
    0.0000   -1.6000    0.0000 O   0  0  0  0  0  0  0  0  0  0  0  0
   -1.3856   -2.4000    0.0000 C   0  0  0  0  0  0  0  0  0  0  0  0
   -2.7713   -1.6000    0.0000 C   0  0  0  0  0  0  0  0  0  0  0  0
   -2.7713    0.0000    0.0000 C   0  0  0  0  0  0  0  0  0  0  0  0
   -1.3856    0.8000    0.0000 N   0  0  0  0  0  0  0  0  0  0  0  0
    2.6042    0.9478    0.0000 C   0  0  0  0  0  0  0  0  0  0  0  0
    4.1798    0.6700    0.0000 C   0  0  0  0  0  0  0  0  0  0  0  0
    5.2083    1.8957    0.0000 Cl  0  0  0  0  0  0  0  0  0  0  0  0
  1  2  1  0  0  0  0
  2  3  1  0  0  0  0
  3  4  1  0  0  0  0
  4  5  1  0  0  0  0
  4 12  1  0  0  0  0
  5  6  1  1  0  0  0
  5  7  1  0  0  0  0
  5 11  1  0  0  0  0
  7  8  1  0  0  0  0
  8  9  1  0  0  0  0
  9 10  1  0  0  0  0
 10 11  1  0  0  0  0
 12 13  1  0  0  0  0
 13 14  1  0  0  0  0
M  END
> <Acceptable>
true

> <IC50>
N/A

$$$$

Generated by Molecular Materials Informatics

 22 25  0  0  0  0  0  0  0  0999 V2000
   -4.5867    1.4148    0.0000 N   0  0  0  0  0  0  0  0  0  0  0  0
   -6.1157    1.8864    0.0000 C   0  0  0  0  0  0  0  0  0  0  0  0
   -4.2307   -0.1451    0.0000 C   0  0  0  0  0  0  0  0  0  0  0  0
   -2.7018   -0.6167    0.0000 C   0  0  0  0  0  0  0  0  0  0  0  0
   -1.5289    0.4716    0.0000 C   0  0  0  0  0  0  0  0  0  0  0  0
   -1.8849    2.0315    0.0000 C   0  0  0  0  0  0  0  0  0  0  0  0
   -3.4139    2.5031    0.0000 C   0  0  0  0  0  0  0  0  0  0  0  0
    0.0000    0.0000    0.0000 C   0  0  0  0  0  0  0  0  0  0  0  0
    0.2385   -1.5821    0.0000 C   0  0  0  0  0  0  0  0  0  0  0  0
   -1.1472   -2.3821    0.0000 C   0  0  0  0  0  0  0  0  0  0  0  0
   -1.1472   -3.9821    0.0000 C   0  0  0  0  0  0  0  0  0  0  0  0
    0.2385   -4.7821    0.0000 C   0  0  0  0  0  0  0  0  0  0  0  0
    1.6241   -3.9821    0.0000 C   0  0  0  0  0  0  0  0  0  0  0  0
    1.6241   -2.3821    0.0000 C   0  0  0  0  0  0  0  0  0  0  0  0
    3.1135   -1.7976    0.0000 C   0  0  0  0  0  0  0  0  0  0  0  0
    3.5851   -0.2687    0.0000 C   0  0  0  0  0  0  0  0  0  0  0  0
    2.6838    1.0533    0.0000 C   0  0  0  0  0  0  0  0  0  0  0  0
    3.5851    2.3753    0.0000 C   0  0  0  0  0  0  0  0  0  0  0  0
    2.8909    3.8168    0.0000 C   0  0  0  0  0  0  0  0  0  0  0  0
    1.2954    3.9364    0.0000 C   0  0  0  0  0  0  0  0  0  0  0  0
    0.3941    2.6144    0.0000 C   0  0  0  0  0  0  0  0  0  0  0  0
    1.0883    1.1729    0.0000 C   0  0  0  0  0  0  0  0  0  0  0  0
  1  2  1  0  0  0  0
  1  3  1  0  0  0  0
  1  7  1  0  0  0  0
  3  4  1  0  0  0  0
  4  5  1  0  0  0  0
  5  6  1  0  0  0  0
  5  8  2  0  0  0  0
  6  7  1  0  0  0  0
  8  9  1  0  0  0  0
  8 22  1  0  0  0  0
  9 10  1  0  0  0  0
  9 14  2  0  0  0  0
 10 11  2  0  0  0  0
 11 12  1  0  0  0  0
 12 13  2  0  0  0  0
 13 14  1  0  0  0  0
 14 15  1  0  0  0  0
 15 16  2  0  0  0  0
 16 17  1  0  0  0  0
 17 18  1  0  0  0  0
 17 22  2  0  0  0  0
 18 19  2  0  0  0  0
 19 20  1  0  0  0  0
 20 21  2  0  0  0  0
 21 22  1  0  0  0  0
M  END
> <Acceptable>
false

> <IC50>
N/A

$$$$

Generated by Molecular Materials Informatics

 21 22  0  0  0  0  0  0  0  0999 V2000
  -11.0851   -1.6000    0.0000 O   0  0  0  0  0  0  0  0  0  0  0  0
    1.3856    2.4000    0.0000 O   0  0  0  0  0  0  0  0  0  0  0  0
   -1.3856    2.4000    0.0000 O   0  0  0  0  0  0  0  0  0  0  0  0
   -8.3138    0.0000    0.0000 N   0  0  0  0  0  0  0  0  0  0  0  0
   -2.7713    0.0000    0.0000 N   0  0  0  0  0  0  0  0  0  0  0  0
   -6.9282    0.8000    0.0000 C   0  0  0  0  0  0  0  0  0  0  0  0
   -9.6995    0.8000    0.0000 C   0  0  0  0  0  0  0  0  0  0  0  0
   -8.3138   -1.6000    0.0000 C   0  0  0  0  0  0  0  0  0  0  0  0
   -5.5426    0.0000    0.0000 C   0  0  0  0  0  0  0  0  0  0  0  0
  -11.0851    0.0000    0.0000 C   0  0  0  0  0  0  0  0  0  0  0  0
   -9.6995   -2.4000    0.0000 C   0  0  0  0  0  0  0  0  0  0  0  0
   -4.1569    0.8000    0.0000 C   0  0  0  0  0  0  0  0  0  0  0  0
   -1.3856    0.8000    0.0000 C   0  0  0  0  0  0  0  0  0  0  0  0
    0.0000    0.0000    0.0000 C   0  0  0  0  0  0  0  0  0  0  0  0
    1.3856    0.8000    0.0000 C   0  0  0  0  0  0  0  0  0  0  0  0
    0.0000   -1.6000    0.0000 C   0  0  0  0  0  0  0  0  0  0  0  0
    2.7713    0.0000    0.0000 C   0  0  0  0  0  0  0  0  0  0  0  0
    1.3856   -2.4000    0.0000 C   0  0  0  0  0  0  0  0  0  0  0  0
    2.7713   -1.6000    0.0000 C   0  0  0  0  0  0  0  0  0  0  0  0
    2.7713    3.2000    0.0000 C   0  0  0  0  0  0  0  0  0  0  0  0
    2.7713    4.8000    0.0000 C   0  0  0  0  0  0  0  0  0  0  0  0
  1 10  1  0  0  0  0
  1 11  1  0  0  0  0
  2 15  1  0  0  0  0
  2 20  1  0  0  0  0
  3 13  2  0  0  0  0
  4  6  1  0  0  0  0
  4  7  1  0  0  0  0
  4  8  1  0  0  0  0
  5 12  1  0  0  0  0
  5 13  1  0  0  0  0
  6  9  1  0  0  0  0
  7 10  1  0  0  0  0
  8 11  1  0  0  0  0
  9 12  1  0  0  0  0
 13 14  1  0  0  0  0
 14 15  2  0  0  0  0
 14 16  1  0  0  0  0
 15 17  1  0  0  0  0
 16 18  2  0  0  0  0
 17 19  2  0  0  0  0
 18 19  1  0  0  0  0
 20 21  1  0  0  0  0
M  END
> <Acceptable>
false

> <IC50>
0.182

$$$$

Generated by Molecular Materials Informatics

 21 21  0  0  0  0  0  0  0  0999 V2000
   -5.5426    3.2000    0.0000 O   0  0  0  0  0  0  0  0  0  0  0  0
   -5.5426    4.8000    0.0000 C   0  0  0  0  0  0  0  0  0  0  0  0
   -4.1569    2.4000    0.0000 C   0  0  0  0  0  0  0  0  0  0  0  0
   -2.7713    3.2000    0.0000 C   0  0  0  0  0  0  0  0  0  0  0  0
   -1.3856    2.4000    0.0000 C   0  0  0  0  0  0  0  0  0  0  0  0
   -1.3856    0.8000    0.0000 C   0  0  0  0  0  0  0  0  0  0  0  0
   -2.7713    0.0000    0.0000 C   0  0  0  0  0  0  0  0  0  0  0  0
   -4.1569    0.8000    0.0000 C   0  0  0  0  0  0  0  0  0  0  0  0
   -5.5426    0.0000    0.0000 O   0  0  0  0  0  0  0  0  0  0  0  0
   -5.5426   -1.6000    0.0000 C   0  0  0  0  0  0  0  0  0  0  0  0
    0.0000    0.0000    0.0000 C   0  0  0  0  0  0  0  0  0  0  0  0
   -0.8000   -1.3856    0.0000 C   0  0  0  0  0  0  0  0  0  0  0  0
   -1.6000   -2.7713    0.0000 N   0  0  0  0  0  0  0  0  0  0  0  0
    0.8000    1.3856    0.0000 C   0  0  0  0  0  0  0  0  0  0  0  0
    2.4000    1.3856    0.0000 C   0  0  0  0  0  0  0  0  0  0  0  0
    3.2000    2.7713    0.0000 C   0  0  0  0  0  0  0  0  0  0  0  0
    4.8000    2.7713    0.0000 N   0  0  0  0  0  0  0  0  0  0  0  0
    5.6000    4.1569    0.0000 C   0  0  0  0  0  0  0  0  0  0  0  0
    1.3856   -0.8000    0.0000 C   0  0  0  0  0  0  0  0  0  0  0  0
    1.3856   -2.4000    0.0000 C   0  0  0  0  0  0  0  0  0  0  0  0
    2.7713    0.0000    0.0000 C   0  0  0  0  0  0  0  0  0  0  0  0
  1  2  1  0  0  0  0
  1  3  1  0  0  0  0
  3  4  1  0  0  0  0
  3  8  2  0  0  0  0
  4  5  2  0  0  0  0
  5  6  1  0  0  0  0
  6  7  2  0  0  0  0
  6 11  1  0  0  0  0
  7  8  1  0  0  0  0
  8  9  1  0  0  0  0
  9 10  1  0  0  0  0
 11 12  1  0  0  0  0
 11 14  1  0  0  0  0
 11 19  1  1  0  0  0
 12 13  3  0  0  0  0
 14 15  1  0  0  0  0
 15 16  1  0  0  0  0
 16 17  1  0  0  0  0
 17 18  1  0  0  0  0
 19 20  1  0  0  0  0
 19 21  1  0  0  0  0
M  END
> <Acceptable>
true

> <IC50>
>30

$$$$

Generated by Molecular Materials Informatics

 20 20  0  0  0  0  0  0  0  0999 V2000
   -5.5426    3.2000    0.0000 O   0  0  0  0  0  0  0  0  0  0  0  0
   -5.5426    4.8000    0.0000 C   0  0  0  0  0  0  0  0  0  0  0  0
   -4.1569    2.4000    0.0000 C   0  0  0  0  0  0  0  0  0  0  0  0
   -2.7713    3.2000    0.0000 C   0  0  0  0  0  0  0  0  0  0  0  0
   -1.3856    2.4000    0.0000 C   0  0  0  0  0  0  0  0  0  0  0  0
   -1.3856    0.8000    0.0000 C   0  0  0  0  0  0  0  0  0  0  0  0
   -2.7713    0.0000    0.0000 C   0  0  0  0  0  0  0  0  0  0  0  0
   -4.1569    0.8000    0.0000 C   0  0  0  0  0  0  0  0  0  0  0  0
   -5.5426    0.0000    0.0000 O   0  0  0  0  0  0  0  0  0  0  0  0
   -5.5426   -1.6000    0.0000 C   0  0  0  0  0  0  0  0  0  0  0  0
    0.0000    0.0000    0.0000 C   0  0  0  0  0  0  0  0  0  0  0  0
   -0.8000   -1.3856    0.0000 C   0  0  0  0  0  0  0  0  0  0  0  0
   -1.6000   -2.7713    0.0000 N   0  0  0  0  0  0  0  0  0  0  0  0
    0.8000    1.3856    0.0000 C   0  0  0  0  0  0  0  0  0  0  0  0
    2.4000    1.3856    0.0000 C   0  0  0  0  0  0  0  0  0  0  0  0
    3.2000    2.7713    0.0000 C   0  0  0  0  0  0  0  0  0  0  0  0
    4.8000    2.7713    0.0000 N   0  0  0  0  0  0  0  0  0  0  0  0
    1.3856   -0.8000    0.0000 C   0  0  0  0  0  0  0  0  0  0  0  0
    1.3856   -2.4000    0.0000 C   0  0  0  0  0  0  0  0  0  0  0  0
    2.7713    0.0000    0.0000 C   0  0  0  0  0  0  0  0  0  0  0  0
  1  2  1  0  0  0  0
  1  3  1  0  0  0  0
  3  4  1  0  0  0  0
  3  8  2  0  0  0  0
  4  5  2  0  0  0  0
  5  6  1  0  0  0  0
  6  7  2  0  0  0  0
  6 11  1  0  0  0  0
  7  8  1  0  0  0  0
  8  9  1  0  0  0  0
  9 10  1  0  0  0  0
 11 12  1  0  0  0  0
 11 14  1  0  0  0  0
 11 18  1  1  0  0  0
 12 13  3  0  0  0  0
 14 15  1  0  0  0  0
 15 16  1  0  0  0  0
 16 17  1  0  0  0  0
 18 19  1  0  0  0  0
 18 20  1  0  0  0  0
M  END
> <Acceptable>
true

> <IC50>
>30

$$$$

Generated by Molecular Materials Informatics

 25 29  0  0  0  0  0  0  0  0999 V2000
   -2.2664   -1.1054    0.0000 O   0  0  0  0  0  0  0  0  0  0  0  0
   -1.5650    0.3327    0.0000 C   0  0  0  0  0  0  0  0  0  0  0  0
   -3.1650    0.3327    0.0000 C   0  0  0  0  0  0  0  0  0  0  0  0
   -4.7650    0.3327    0.0000 C   0  0  0  0  0  0  0  0  0  0  0  0
   -1.7323    1.9239    0.0000 C   0  0  0  0  0  0  0  0  0  0  0  0
   -0.2706    2.5747    0.0000 C   0  0  0  0  0  0  0  0  0  0  0  0
    0.8000    1.3856    0.0000 C   0  0  0  0  0  0  0  0  0  0  0  0
    2.4000    1.3856    0.0000 C   0  0  0  0  0  0  0  0  0  0  0  0
    3.2000    2.7713    0.0000 C   0  0  0  0  0  0  0  0  0  0  0  0
    4.8000    2.7713    0.0000 C   0  0  0  0  0  0  0  0  0  0  0  0
    5.6000    1.3856    0.0000 C   0  0  0  0  0  0  0  0  0  0  0  0
    7.2000    1.3856    0.0000 C   0  0  0  0  0  0  0  0  0  0  0  0
    8.0000    0.0000    0.0000 C   0  0  0  0  0  0  0  0  0  0  0  0
    9.5650   -0.3327    0.0000 O   0  0  0  0  0  0  0  0  0  0  0  0
    9.7323   -1.9239    0.0000 N   0  0  0  0  0  0  0  0  0  0  0  0
    8.2706   -2.5747    0.0000 C   0  0  0  0  0  0  0  0  0  0  0  0
    7.2000   -1.3856    0.0000 C   0  0  0  0  0  0  0  0  0  0  0  0
    5.6000   -1.3856    0.0000 C   0  0  0  0  0  0  0  0  0  0  0  0
    4.8000    0.0000    0.0000 C   0  0  0  0  0  0  0  0  0  0  0  0
    4.0000   -1.3856    0.0000 C   0  0  0  0  0  0  0  0  0  0  0  0
    3.2000    0.0000    0.0000 C   0  0  0  0  0  0  0  0  0  0  0  0
    2.4000   -1.3856    0.0000 C   0  0  0  0  0  0  0  0  0  0  0  0
    0.8000   -1.3856    0.0000 C   0  0  0  0  0  0  0  0  0  0  0  0
    0.0000    0.0000    0.0000 C   0  0  0  0  0  0  0  0  0  0  0  0
   -0.9405   -1.2944    0.0000 C   0  0  0  0  0  0  0  0  0  0  0  0
  2  1  1  1  0  0  0
  2  3  1  0  0  0  0
  2  5  1  0  0  0  0
  2 24  1  0  0  0  0
  3  4  3  0  0  0  0
  5  6  1  0  0  0  0
  7  6  1  1  0  0  0
  7  8  1  0  0  0  0
  7 24  1  0  0  0  0
  8  9  1  6  0  0  0
  8 21  1  0  0  0  0
  9 10  1  0  0  0  0
 10 11  1  0  0  0  0
 11 12  2  0  0  0  0
 11 19  1  0  0  0  0
 12 13  1  0  0  0  0
 13 14  1  0  0  0  0
 13 17  2  0  0  0  0
 14 15  1  0  0  0  0
 15 16  2  0  0  0  0
 16 17  1  0  0  0  0
 17 18  1  0  0  0  0
 18 19  1  0  0  0  0
 19 20  1  1  0  0  0
 19 21  1  0  0  0  0
 21 22  1  1  0  0  0
 22 23  1  0  0  0  0
 23 24  1  0  0  0  0
 24 25  1  1  0  0  0
M  END
> <Acceptable>
true

> <IC50>
N/A

$$$$

Generated by Molecular Materials Informatics

 23 25  0  0  0  0  0  0  0  0999 V2000
   -7.2000   -1.3856    0.0000 O   0  0  0  0  0  0  0  0  0  0  0  0
   -6.4000    0.0000    0.0000 N   0  3  0  0  0  0  0  0  0  0  0  0
   -7.2000    1.3856    0.0000 O   0  5  0  0  0  0  0  0  0  0  0  0
   -4.8000    0.0000    0.0000 C   0  0  0  0  0  0  0  0  0  0  0  0
   -4.0000   -1.3856    0.0000 C   0  0  0  0  0  0  0  0  0  0  0  0
   -2.4000   -1.3856    0.0000 C   0  0  0  0  0  0  0  0  0  0  0  0
   -1.6000    0.0000    0.0000 C   0  0  0  0  0  0  0  0  0  0  0  0
   -2.4000    1.3856    0.0000 C   0  0  0  0  0  0  0  0  0  0  0  0
   -4.0000    1.3856    0.0000 C   0  0  0  0  0  0  0  0  0  0  0  0
    0.0000    0.0000    0.0000 C   0  0  0  0  0  0  0  0  0  0  0  0
    0.9405   -1.2944    0.0000 O   0  0  0  0  0  0  0  0  0  0  0  0
    2.4621   -0.8000    0.0000 C   0  0  0  0  0  0  0  0  0  0  0  0
    2.4621    0.8000    0.0000 C   0  0  0  0  0  0  0  0  0  0  0  0
    0.9405    1.2944    0.0000 C   0  0  0  0  0  0  0  0  0  0  0  0
    3.7566   -1.7405    0.0000 C   0  0  0  0  0  0  0  0  0  0  0  0
    5.2182   -1.0897    0.0000 N   0  0  0  0  0  0  0  0  0  0  0  0
    6.5127   -2.0301    0.0000 N   0  0  0  0  0  0  0  0  0  0  0  0
    6.5127   -3.6301    0.0000 C   0  0  0  0  0  0  0  0  0  0  0  0
    8.0344   -4.1246    0.0000 C   0  0  0  0  0  0  0  0  0  0  0  0
    8.5288   -5.6463    0.0000 O   0  0  0  0  0  0  0  0  0  0  0  0
    8.9748   -2.8301    0.0000 N   0  0  0  0  0  0  0  0  0  0  0  0
    8.0344   -1.5357    0.0000 C   0  0  0  0  0  0  0  0  0  0  0  0
    8.5288   -0.0140    0.0000 O   0  0  0  0  0  0  0  0  0  0  0  0
  1  2  2  0  0  0  0
  2  3  1  0  0  0  0
  2  4  1  0  0  0  0
  4  5  1  0  0  0  0
  4  9  2  0  0  0  0
  5  6  2  0  0  0  0
  6  7  1  0  0  0  0
  7  8  2  0  0  0  0
  7 10  1  0  0  0  0
  8  9  1  0  0  0  0
 10 11  1  0  0  0  0
 10 14  2  0  0  0  0
 11 12  1  0  0  0  0
 12 13  2  0  0  0  0
 12 15  1  0  0  0  0
 13 14  1  0  0  0  0
 15 16  2  0  0  0  0
 16 17  1  0  0  0  0
 17 18  1  0  0  0  0
 17 22  1  0  0  0  0
 18 19  1  0  0  0  0
 19 20  2  0  0  0  0
 19 21  1  0  0  0  0
 21 22  1  0  0  0  0
 22 23  2  0  0  0  0
M  CHG  2   2   1   3  -1
M  END
> <Acceptable>
true

> <IC50>
N/A

$$$$

Generated by Molecular Materials Informatics

 32 36  0  0  0  0  0  0  0  0999 V2000
    1.6289   -2.2420    0.0000 O   0  0  0  0  0  0  0  0  0  0  0  0
   12.5734   -3.2654    0.0000 O   0  0  0  0  0  0  0  0  0  0  0  0
    4.1235   -0.3710    0.0000 N   0  0  0  0  0  0  0  0  0  0  0  0
   -1.1272   -2.5317    0.0000 N   0  0  0  0  0  0  0  0  0  0  0  0
    1.5912    0.1672    0.0000 C   0  0  0  0  0  0  0  0  0  0  0  0
    0.0000    0.0000    0.0000 C   0  0  0  0  0  0  0  0  0  0  0  0
    2.3912    1.5529    0.0000 C   0  0  0  0  0  0  0  0  0  0  0  0
    2.6618   -1.0218    0.0000 C   0  0  0  0  0  0  0  0  0  0  0  0
    3.9563    1.2202    0.0000 C   0  0  0  0  0  0  0  0  0  0  0  0
    5.5092   -1.1710    0.0000 C   0  0  0  0  0  0  0  0  0  0  0  0
   -0.1672    1.5912    0.0000 C   0  0  0  0  0  0  0  0  0  0  0  0
   -1.5912   -0.1672    0.0000 C   0  0  0  0  0  0  0  0  0  0  0  0
    0.1672   -1.5912    0.0000 C   0  0  0  0  0  0  0  0  0  0  0  0
    6.8948   -0.3710    0.0000 C   0  0  0  0  0  0  0  0  0  0  0  0
   -1.6289    2.2420    0.0000 C   0  0  0  0  0  0  0  0  0  0  0  0
   -2.2420   -1.6289    0.0000 C   0  0  0  0  0  0  0  0  0  0  0  0
    1.1272    2.5317    0.0000 C   0  0  0  0  0  0  0  0  0  0  0  0
   -2.5317    1.1272    0.0000 C   0  0  0  0  0  0  0  0  0  0  0  0
    8.2804   -1.1710    0.0000 C   0  0  0  0  0  0  0  0  0  0  0  0
   -1.7962    3.8332    0.0000 C   0  0  0  0  0  0  0  0  0  0  0  0
   -3.8332   -1.7962    0.0000 C   0  0  0  0  0  0  0  0  0  0  0  0
    0.9599    4.1229    0.0000 C   0  0  0  0  0  0  0  0  0  0  0  0
   -4.1229    0.9599    0.0000 C   0  0  0  0  0  0  0  0  0  0  0  0
    9.6661   -0.3710    0.0000 C   0  0  0  0  0  0  0  0  0  0  0  0
    8.2804   -2.7710    0.0000 C   0  0  0  0  0  0  0  0  0  0  0  0
   -0.5017    4.7737    0.0000 C   0  0  0  0  0  0  0  0  0  0  0  0
   -4.7737   -0.5017    0.0000 C   0  0  0  0  0  0  0  0  0  0  0  0
   11.0517   -1.1710    0.0000 C   0  0  0  0  0  0  0  0  0  0  0  0
   11.0517   -2.7710    0.0000 C   0  0  0  0  0  0  0  0  0  0  0  0
   12.5734   -0.6766    0.0000 C   0  0  0  0  0  0  0  0  0  0  0  0
    9.6661   -3.5710    0.0000 C   0  0  0  0  0  0  0  0  0  0  0  0
   13.5139   -1.9710    0.0000 C   0  0  0  0  0  0  0  0  0  0  0  0
  1 13  2  0  0  0  0
  2 29  1  0  0  0  0
  2 32  1  0  0  0  0
  3  8  1  0  0  0  0
  3  9  1  0  0  0  0
  3 10  1  6  0  0  0
  4 13  1  0  0  0  0
  5  6  1  6  0  0  0
  5  7  1  0  0  0  0
  5  8  1  0  0  0  0
  6 11  1  0  0  0  0
  6 12  1  0  0  0  0
  6 13  1  0  0  0  0
  7  9  1  0  0  0  0
 10 14  1  0  0  0  0
 11 15  2  0  0  0  0
 11 17  1  0  0  0  0
 12 16  2  0  0  0  0
 12 18  1  0  0  0  0
 14 19  1  0  0  0  0
 15 20  1  0  0  0  0
 16 21  1  0  0  0  0
 17 22  2  0  0  0  0
 18 23  2  0  0  0  0
 19 24  2  0  0  0  0
 19 25  1  0  0  0  0
 20 26  2  0  0  0  0
 21 27  2  0  0  0  0
 22 26  1  0  0  0  0
 23 27  1  0  0  0  0
 24 28  1  0  0  0  0
 25 31  2  0  0  0  0
 28 29  2  0  0  0  0
 28 30  1  0  0  0  0
 29 31  1  0  0  0  0
 30 32  1  0  0  0  0
M  END
> <Acceptable>
false

> <IC50>
0.077

$$$$

Generated by Molecular Materials Informatics

 38 41  0  0  0  0  0  0  0  0999 V2000
    0.0000    0.0000    0.0000 S   0  0  0  0  0  0  0  0  0  0  0  0
  -12.0621   -1.9713    0.0000 O   0  0  0  0  0  0  0  0  0  0  0  0
  -13.0026   -4.8657    0.0000 O   0  0  0  0  0  0  0  0  0  0  0  0
   -8.0000   -2.7713    0.0000 O   0  0  0  0  0  0  0  0  0  0  0  0
   -2.4000   -1.3856    0.0000 O   0  0  0  0  0  0  0  0  0  0  0  0
   -8.0000    0.0000    0.0000 O   0  0  0  0  0  0  0  0  0  0  0  0
   -1.3856   -0.8000    0.0000 O   0  0  0  0  0  0  0  0  0  0  0  0
    1.3856    0.8000    0.0000 O   0  0  0  0  0  0  0  0  0  0  0  0
   -5.6000   -1.3856    0.0000 N   0  0  0  0  0  0  0  0  0  0  0  0
   -0.8000    1.3856    0.0000 N   0  0  0  0  0  0  0  0  0  0  0  0
    3.2000   -5.5426    0.0000 N   0  0  0  0  0  0  0  0  0  0  0  0
  -10.5405   -4.0657    0.0000 C   0  0  0  0  0  0  0  0  0  0  0  0
  -12.0621   -3.5713    0.0000 C   0  0  0  0  0  0  0  0  0  0  0  0
   -9.6000   -2.7713    0.0000 C   0  0  0  0  0  0  0  0  0  0  0  0
  -10.5405   -5.6657    0.0000 C   0  0  0  0  0  0  0  0  0  0  0  0
  -10.5405   -1.4768    0.0000 C   0  0  0  0  0  0  0  0  0  0  0  0
  -12.0622   -6.1601    0.0000 C   0  0  0  0  0  0  0  0  0  0  0  0
   -4.8000    0.0000    0.0000 C   0  0  0  0  0  0  0  0  0  0  0  0
   -3.2000    0.0000    0.0000 C   0  0  0  0  0  0  0  0  0  0  0  0
   -7.2000   -1.3856    0.0000 C   0  0  0  0  0  0  0  0  0  0  0  0
   -2.4000    1.3856    0.0000 C   0  0  0  0  0  0  0  0  0  0  0  0
   -5.6000    1.3856    0.0000 C   0  0  0  0  0  0  0  0  0  0  0  0
    0.0000    2.7713    0.0000 C   0  0  0  0  0  0  0  0  0  0  0  0
    1.6000    2.7713    0.0000 C   0  0  0  0  0  0  0  0  0  0  0  0
   -4.8000    2.7713    0.0000 C   0  0  0  0  0  0  0  0  0  0  0  0
    0.8000   -1.3856    0.0000 C   0  0  0  0  0  0  0  0  0  0  0  0
    2.4000    1.3856    0.0000 C   0  0  0  0  0  0  0  0  0  0  0  0
    2.4000    4.1569    0.0000 C   0  0  0  0  0  0  0  0  0  0  0  0
   -3.2000    2.7713    0.0000 C   0  0  0  0  0  0  0  0  0  0  0  0
   -5.6000    4.1569    0.0000 C   0  0  0  0  0  0  0  0  0  0  0  0
    0.0000   -2.7713    0.0000 C   0  0  0  0  0  0  0  0  0  0  0  0
    2.4000   -1.3856    0.0000 C   0  0  0  0  0  0  0  0  0  0  0  0
   -2.4000    4.1569    0.0000 C   0  0  0  0  0  0  0  0  0  0  0  0
   -4.8000    5.5426    0.0000 C   0  0  0  0  0  0  0  0  0  0  0  0
   -3.2000    5.5426    0.0000 C   0  0  0  0  0  0  0  0  0  0  0  0
    0.8000   -4.1569    0.0000 C   0  0  0  0  0  0  0  0  0  0  0  0
    3.2000   -2.7713    0.0000 C   0  0  0  0  0  0  0  0  0  0  0  0
    2.4000   -4.1569    0.0000 C   0  0  0  0  0  0  0  0  0  0  0  0
  1  7  2  0  0  0  0
  1  8  2  0  0  0  0
  1 10  1  0  0  0  0
  1 26  1  0  0  0  0
 13  2  1  6  0  0  0
  2 16  1  0  0  0  0
  3 13  1  0  0  0  0
  3 17  1  0  0  0  0
 14  4  1  6  0  0  0
  4 20  1  0  0  0  0
 19  5  1  1  0  0  0
  6 20  2  0  0  0  0
 18  9  1  1  0  0  0
  9 20  1  0  0  0  0
 10 21  1  0  0  0  0
 10 23  1  0  0  0  0
 11 38  1  0  0  0  0
 12 13  1  0  0  0  0
 12 14  1  0  0  0  0
 12 15  1  6  0  0  0
 14 16  1  0  0  0  0
 15 17  1  0  0  0  0
 18 19  1  0  0  0  0
 18 22  1  0  0  0  0
 19 21  1  0  0  0  0
 22 25  1  0  0  0  0
 23 24  1  0  0  0  0
 24 27  1  0  0  0  0
 24 28  1  0  0  0  0
 25 29  2  0  0  0  0
 25 30  1  0  0  0  0
 26 31  2  0  0  0  0
 26 32  1  0  0  0  0
 29 33  1  0  0  0  0
 30 34  2  0  0  0  0
 31 36  1  0  0  0  0
 32 37  2  0  0  0  0
 33 35  2  0  0  0  0
 34 35  1  0  0  0  0
 36 38  2  0  0  0  0
 37 38  1  0  0  0  0
M  END
> <Acceptable>
true

> <IC50>
N/A

$$$$

Generated by Molecular Materials Informatics

 46 51  0  0  0  0  0  0  0  0999 V2000
   -4.1569   -0.8000    0.0000 O   0  0  0  0  0  0  0  0  0  0  0  0
   11.0851    0.0000    0.0000 O   0  0  0  0  0  0  0  0  0  0  0  0
   -4.1569    2.4000    0.0000 O   0  0  0  0  0  0  0  0  0  0  0  0
   13.8564    1.6000    0.0000 O   0  0  0  0  0  0  0  0  0  0  0  0
    6.9282   -2.4000    0.0000 O   0  0  0  0  0  0  0  0  0  0  0  0
    6.9282   -5.6000    0.0000 O   0  0  0  0  0  0  0  0  0  0  0  0
    2.7713    0.0000    0.0000 N   0  0  0  0  0  0  0  0  0  0  0  0
   15.2420   -5.6000    0.0000 N   0  0  0  0  0  0  0  0  0  0  0  0
    1.3856   -0.8000    0.0000 C   0  0  0  0  0  0  0  0  0  0  0  0
   13.8564   -4.8000    0.0000 C   0  0  0  0  0  0  0  0  0  0  0  0
    0.0000    0.0000    0.0000 C   0  0  0  0  0  0  0  0  0  0  0  0
   13.8564   -3.2000    0.0000 C   0  0  0  0  0  0  0  0  0  0  0  0
    2.7713    1.6000    0.0000 C   0  0  0  0  0  0  0  0  0  0  0  0
   16.6277   -4.8000    0.0000 C   0  0  0  0  0  0  0  0  0  0  0  0
    1.3856    2.4000    0.0000 C   0  0  0  0  0  0  0  0  0  0  0  0
   16.6277   -3.2000    0.0000 C   0  0  0  0  0  0  0  0  0  0  0  0
    0.0000    1.6000    0.0000 C   0  0  0  0  0  0  0  0  0  0  0  0
   15.2420   -2.4000    0.0000 C   0  0  0  0  0  0  0  0  0  0  0  0
    1.3856   -2.4000    0.0000 C   0  0  0  0  0  0  0  0  0  0  0  0
   12.4708   -5.6000    0.0000 C   0  0  0  0  0  0  0  0  0  0  0  0
   -1.3856   -0.8000    0.0000 C   0  0  0  0  0  0  0  0  0  0  0  0
    4.1569   -0.8000    0.0000 C   0  0  0  0  0  0  0  0  0  0  0  0
   12.4708   -2.4000    0.0000 C   0  0  0  0  0  0  0  0  0  0  0  0
   15.2420   -7.2000    0.0000 C   0  0  0  0  0  0  0  0  0  0  0  0
    2.7713   -3.2000    0.0000 C   0  0  0  0  0  0  0  0  0  0  0  0
   -1.3856    2.4000    0.0000 C   0  0  0  0  0  0  0  0  0  0  0  0
   11.0851   -4.8000    0.0000 C   0  0  0  0  0  0  0  0  0  0  0  0
   15.2420   -0.8000    0.0000 C   0  0  0  0  0  0  0  0  0  0  0  0
   -2.7713    0.0000    0.0000 C   0  0  0  0  0  0  0  0  0  0  0  0
   12.4708   -0.8000    0.0000 C   0  0  0  0  0  0  0  0  0  0  0  0
   -2.7713    1.6000    0.0000 C   0  0  0  0  0  0  0  0  0  0  0  0
   13.8564    0.0000    0.0000 C   0  0  0  0  0  0  0  0  0  0  0  0
    4.1569   -2.4000    0.0000 C   0  0  0  0  0  0  0  0  0  0  0  0
    2.7713   -4.8000    0.0000 C   0  0  0  0  0  0  0  0  0  0  0  0
    9.6995   -5.6000    0.0000 C   0  0  0  0  0  0  0  0  0  0  0  0
   11.0851   -3.2000    0.0000 C   0  0  0  0  0  0  0  0  0  0  0  0
    5.5426   -3.2000    0.0000 C   0  0  0  0  0  0  0  0  0  0  0  0
    8.3138   -3.2000    0.0000 C   0  0  0  0  0  0  0  0  0  0  0  0
    8.3138   -4.8000    0.0000 C   0  0  0  0  0  0  0  0  0  0  0  0
    9.6995   -2.4000    0.0000 C   0  0  0  0  0  0  0  0  0  0  0  0
    4.1569   -5.6000    0.0000 C   0  0  0  0  0  0  0  0  0  0  0  0
    5.5426   -4.8000    0.0000 C   0  0  0  0  0  0  0  0  0  0  0  0
   -4.1569   -2.4000    0.0000 C   0  0  0  0  0  0  0  0  0  0  0  0
   11.0851    1.6000    0.0000 C   0  0  0  0  0  0  0  0  0  0  0  0
   -4.1569    4.0000    0.0000 C   0  0  0  0  0  0  0  0  0  0  0  0
   15.2420    2.4000    0.0000 C   0  0  0  0  0  0  0  0  0  0  0  0
  1 29  1  0  0  0  0
  1 43  1  0  0  0  0
  2 30  1  0  0  0  0
  2 44  1  0  0  0  0
  3 31  1  0  0  0  0
  3 45  1  0  0  0  0
  4 32  1  0  0  0  0
  4 46  1  0  0  0  0
  5 37  1  0  0  0  0
  5 38  1  0  0  0  0
  6 42  1  0  0  0  0
  7  9  1  0  0  0  0
  7 13  1  0  0  0  0
  7 22  1  1  0  0  0
  8 10  1  0  0  0  0
  8 14  1  0  0  0  0
  8 24  1  1  0  0  0
  9 11  1  0  0  0  0
  9 19  1  6  0  0  0
 10 12  1  0  0  0  0
 10 20  1  6  0  0  0
 11 17  2  0  0  0  0
 11 21  1  0  0  0  0
 12 18  2  0  0  0  0
 12 23  1  0  0  0  0
 13 15  1  0  0  0  0
 14 16  1  0  0  0  0
 15 17  1  0  0  0  0
 16 18  1  0  0  0  0
 17 26  1  0  0  0  0
 18 28  1  0  0  0  0
 19 25  1  0  0  0  0
 20 27  1  0  0  0  0
 21 29  2  0  0  0  0
 23 30  2  0  0  0  0
 25 33  2  0  0  0  0
 25 34  1  0  0  0  0
 26 31  2  0  0  0  0
 27 35  2  0  0  0  0
 27 36  1  0  0  0  0
 28 32  2  0  0  0  0
 29 31  1  0  0  0  0
 30 32  1  0  0  0  0
 33 37  1  0  0  0  0
 34 41  2  0  0  0  0
 35 39  1  0  0  0  0
 36 40  2  0  0  0  0
 37 42  2  0  0  0  0
 38 39  2  0  0  0  0
 38 40  1  0  0  0  0
 41 42  1  0  0  0  0
M  END
> <Acceptable>
false

> <IC50>
2.57

$$$$

Generated by Molecular Materials Informatics

 28 31  0  0  0  0  0  0  0  0999 V2000
   -0.9889   -3.0434    0.0000 O   0  0  0  0  0  0  0  0  0  0  0  0
   -3.2309    4.3378    0.0000 O   0  0  0  0  0  0  0  0  0  0  0  0
    7.4738    3.2277    0.0000 O   0  0  0  0  0  0  0  0  0  0  0  0
    6.3466    5.7594    0.0000 O   0  0  0  0  0  0  0  0  0  0  0  0
    0.3327    1.5650    0.0000 N   0  0  0  0  0  0  0  0  0  0  0  0
   -1.0530    2.3650    0.0000 N   0  0  0  0  0  0  0  0  0  0  0  0
   -1.5912   -0.1672    0.0000 N   0  0  0  0  0  0  0  0  0  0  0  0
    0.0000    0.0000    0.0000 C   0  0  0  0  0  0  0  0  0  0  0  0
   -2.2420    1.2944    0.0000 C   0  0  0  0  0  0  0  0  0  0  0  0
    1.7943    2.2158    0.0000 C   0  0  0  0  0  0  0  0  0  0  0  0
    1.0706   -1.1890    0.0000 C   0  0  0  0  0  0  0  0  0  0  0  0
   -3.8070    1.6271    0.0000 C   0  0  0  0  0  0  0  0  0  0  0  0
    3.0888    1.2754    0.0000 C   0  0  0  0  0  0  0  0  0  0  0  0
    1.9616    3.8071    0.0000 C   0  0  0  0  0  0  0  0  0  0  0  0
    0.5762   -2.7107    0.0000 C   0  0  0  0  0  0  0  0  0  0  0  0
    2.6356   -0.8564    0.0000 C   0  0  0  0  0  0  0  0  0  0  0  0
   -4.3015    3.1488    0.0000 C   0  0  0  0  0  0  0  0  0  0  0  0
   -4.8777    0.4381    0.0000 C   0  0  0  0  0  0  0  0  0  0  0  0
    4.5504    1.9261    0.0000 C   0  0  0  0  0  0  0  0  0  0  0  0
    3.4232    4.4578    0.0000 C   0  0  0  0  0  0  0  0  0  0  0  0
    4.7177    3.5174    0.0000 C   0  0  0  0  0  0  0  0  0  0  0  0
    1.6468   -3.8998    0.0000 C   0  0  0  0  0  0  0  0  0  0  0  0
    3.7063   -2.0454    0.0000 C   0  0  0  0  0  0  0  0  0  0  0  0
   -5.8665    3.4814    0.0000 C   0  0  0  0  0  0  0  0  0  0  0  0
   -6.4427    0.7707    0.0000 C   0  0  0  0  0  0  0  0  0  0  0  0
    3.2118   -3.5671    0.0000 C   0  0  0  0  0  0  0  0  0  0  0  0
   -6.9371    2.2924    0.0000 C   0  0  0  0  0  0  0  0  0  0  0  0
    6.1793    4.1682    0.0000 C   0  0  0  0  0  0  0  0  0  0  0  0
  1 15  2  0  0  0  0
  2 17  2  0  0  0  0
  3 28  1  0  0  0  0
  4 28  2  0  0  0  0
  5  6  1  0  0  0  0
  5  8  1  0  0  0  0
  5 10  1  0  0  0  0
  6  9  1  0  0  0  0
  7  8  1  0  0  0  0
  7  9  1  0  0  0  0
  8 11  2  0  0  0  0
  9 12  2  0  0  0  0
 10 13  2  0  0  0  0
 10 14  1  0  0  0  0
 11 15  1  0  0  0  0
 11 16  1  0  0  0  0
 12 17  1  0  0  0  0
 12 18  1  0  0  0  0
 13 19  1  0  0  0  0
 14 20  2  0  0  0  0
 15 22  1  0  0  0  0
 16 23  2  0  0  0  0
 17 24  1  0  0  0  0
 18 25  2  0  0  0  0
 19 21  2  0  0  0  0
 20 21  1  0  0  0  0
 21 28  1  0  0  0  0
 22 26  2  0  0  0  0
 23 26  1  0  0  0  0
 24 27  2  0  0  0  0
 25 27  1  0  0  0  0
M  END
> <Acceptable>
true

> <IC50>
N/A

$$$$

Generated by Molecular Materials Informatics

 32 35  0  0  0  0  0  0  0  0999 V2000
   14.2605   -0.9095    0.0000 S   0  0  0  0  0  0  0  0  0  0  0  0
   12.8748   -1.7095    0.0000 O   0  0  0  0  0  0  0  0  0  0  0  0
   15.6461   -0.1095    0.0000 O   0  0  0  0  0  0  0  0  0  0  0  0
   13.4605    0.4761    0.0000 N   0  0  0  0  0  0  0  0  0  0  0  0
   11.8605    0.4761    0.0000 C   0  0  0  0  0  0  0  0  0  0  0  0
   11.0605   -0.9095    0.0000 C   0  0  0  0  0  0  0  0  0  0  0  0
    9.4605   -0.9095    0.0000 C   0  0  0  0  0  0  0  0  0  0  0  0
    8.6605    0.4761    0.0000 C   0  0  0  0  0  0  0  0  0  0  0  0
    7.0954    0.8088    0.0000 N   0  0  0  0  0  0  0  0  0  0  0  0
    6.9282    2.4000    0.0000 C   0  0  0  0  0  0  0  0  0  0  0  0
    8.3899    3.0508    0.0000 C   0  0  0  0  0  0  0  0  0  0  0  0
    9.4605    1.8618    0.0000 C   0  0  0  0  0  0  0  0  0  0  0  0
   11.0605    1.8618    0.0000 C   0  0  0  0  0  0  0  0  0  0  0  0
    5.5426    3.2000    0.0000 C   0  0  0  0  0  0  0  0  0  0  0  0
    5.5426    4.8000    0.0000 O   0  0  0  0  0  0  0  0  0  0  0  0
    4.1569    2.4000    0.0000 N   0  0  0  0  0  0  0  0  0  0  0  0
    4.1569    0.8000    0.0000 C   0  0  0  0  0  0  0  0  0  0  0  0
    2.7713    0.0000    0.0000 C   0  0  0  0  0  0  0  0  0  0  0  0
    1.3856    0.8000    0.0000 N   0  0  0  0  0  0  0  0  0  0  0  0
    1.3856    2.4000    0.0000 C   0  0  0  0  0  0  0  0  0  0  0  0
    2.7713    3.2000    0.0000 C   0  0  0  0  0  0  0  0  0  0  0  0
    0.0000    0.0000    0.0000 C   0  0  0  0  0  0  0  0  0  0  0  0
    0.0000   -1.6000    0.0000 N   0  0  0  0  0  0  0  0  0  0  0  0
   -1.3856   -2.4000    0.0000 C   0  0  0  0  0  0  0  0  0  0  0  0
   -2.7713   -1.6000    0.0000 C   0  0  0  0  0  0  0  0  0  0  0  0
   -2.7713    0.0000    0.0000 C   0  0  0  0  0  0  0  0  0  0  0  0
   -1.3856    0.8000    0.0000 C   0  0  0  0  0  0  0  0  0  0  0  0
   -1.3856    2.4000    0.0000 N   0  0  0  0  0  0  0  0  0  0  0  0
   -2.7713    3.2000    0.0000 C   0  0  0  0  0  0  0  0  0  0  0  0
   -4.1569    2.4000    0.0000 C   0  0  0  0  0  0  0  0  0  0  0  0
   -2.7713    4.8000    0.0000 C   0  0  0  0  0  0  0  0  0  0  0  0
   15.0605   -2.2952    0.0000 C   0  0  0  0  0  0  0  0  0  0  0  0
  1  2  2  0  0  0  0
  1  3  2  0  0  0  0
  1  4  1  0  0  0  0
  1 32  1  0  0  0  0
  5  4  1  6  0  0  0
  5  6  1  0  0  0  0
  5 13  1  0  0  0  0
  6  7  2  0  0  0  0
  7  8  1  0  0  0  0
  8  9  2  0  0  0  0
  8 12  1  0  0  0  0
  9 10  1  0  0  0  0
 10 11  2  0  0  0  0
 10 14  1  0  0  0  0
 11 12  1  0  0  0  0
 12 13  2  0  0  0  0
 14 15  2  0  0  0  0
 14 16  1  0  0  0  0
 16 17  1  0  0  0  0
 16 21  1  0  0  0  0
 17 18  1  0  0  0  0
 18 19  1  0  0  0  0
 19 20  1  0  0  0  0
 19 22  1  0  0  0  0
 20 21  1  0  0  0  0
 22 23  1  0  0  0  0
 22 27  2  0  0  0  0
 23 24  2  0  0  0  0
 24 25  1  0  0  0  0
 25 26  2  0  0  0  0
 26 27  1  0  0  0  0
 27 28  1  0  0  0  0
 28 29  1  0  0  0  0
 29 30  1  0  0  0  0
 29 31  1  0  0  0  0
M  END
> <Acceptable>
true

> <IC50>
N/A

$$$$

Generated by Molecular Materials Informatics

 33 37  0  0  0  0  0  0  0  0999 V2000
   -4.4235    5.8475    0.0000 F   0  0  0  0  0  0  0  0  0  0  0  0
  -15.3181   -5.4508    0.0000 O   0  0  0  0  0  0  0  0  0  0  0  0
   -7.0042   -2.2508    0.0000 N   0  0  0  0  0  0  0  0  0  0  0  0
   -2.8473    0.1492    0.0000 N   0  0  0  0  0  0  0  0  0  0  0  0
    0.0000    0.0000    0.0000 N   0  0  0  0  0  0  0  0  0  0  0  0
   -1.2944   -2.2420    0.0000 N   0  0  0  0  0  0  0  0  0  0  0  0
   -4.2330   -0.6508    0.0000 C   0  0  0  0  0  0  0  0  0  0  0  0
   -5.6186    0.1492    0.0000 C   0  0  0  0  0  0  0  0  0  0  0  0
   -4.2330   -2.2508    0.0000 C   0  0  0  0  0  0  0  0  0  0  0  0
   -7.0042   -0.6508    0.0000 C   0  0  0  0  0  0  0  0  0  0  0  0
   -5.6186   -3.0508    0.0000 C   0  0  0  0  0  0  0  0  0  0  0  0
   -8.3899   -3.0508    0.0000 C   0  0  0  0  0  0  0  0  0  0  0  0
   -9.7755   -2.2508    0.0000 C   0  0  0  0  0  0  0  0  0  0  0  0
   -1.4617   -0.6508    0.0000 C   0  0  0  0  0  0  0  0  0  0  0  0
    1.0706   -1.1890    0.0000 C   0  0  0  0  0  0  0  0  0  0  0  0
  -11.1612   -3.0508    0.0000 C   0  0  0  0  0  0  0  0  0  0  0  0
    0.3327    1.5650    0.0000 C   0  0  0  0  0  0  0  0  0  0  0  0
    0.2706   -2.5747    0.0000 C   0  0  0  0  0  0  0  0  0  0  0  0
    2.6706   -1.1890    0.0000 C   0  0  0  0  0  0  0  0  0  0  0  0
   -0.8564    2.6356    0.0000 C   0  0  0  0  0  0  0  0  0  0  0  0
  -11.1612   -4.6508    0.0000 C   0  0  0  0  0  0  0  0  0  0  0  0
  -12.5468   -2.2508    0.0000 C   0  0  0  0  0  0  0  0  0  0  0  0
    1.0706   -3.9603    0.0000 C   0  0  0  0  0  0  0  0  0  0  0  0
    3.4706   -2.5747    0.0000 C   0  0  0  0  0  0  0  0  0  0  0  0
    2.6706   -3.9603    0.0000 C   0  0  0  0  0  0  0  0  0  0  0  0
  -12.5468   -5.4508    0.0000 C   0  0  0  0  0  0  0  0  0  0  0  0
  -13.9324   -3.0508    0.0000 C   0  0  0  0  0  0  0  0  0  0  0  0
   -2.3781    2.1412    0.0000 C   0  0  0  0  0  0  0  0  0  0  0  0
   -0.5237    4.2007    0.0000 C   0  0  0  0  0  0  0  0  0  0  0  0
  -13.9324   -4.6508    0.0000 C   0  0  0  0  0  0  0  0  0  0  0  0
   -3.5671    3.2118    0.0000 C   0  0  0  0  0  0  0  0  0  0  0  0
   -1.7127    5.2713    0.0000 C   0  0  0  0  0  0  0  0  0  0  0  0
   -3.2344    4.7769    0.0000 C   0  0  0  0  0  0  0  0  0  0  0  0
  1 33  1  0  0  0  0
  2 30  1  0  0  0  0
  3 10  1  0  0  0  0
  3 11  1  0  0  0  0
  3 12  1  1  0  0  0
  7  4  1  1  0  0  0
  4 14  1  0  0  0  0
  5 14  1  0  0  0  0
  5 15  1  0  0  0  0
  5 17  1  0  0  0  0
  6 14  2  0  0  0  0
  6 18  1  0  0  0  0
  7  8  1  0  0  0  0
  7  9  1  0  0  0  0
  8 10  1  0  0  0  0
  9 11  1  0  0  0  0
 12 13  1  0  0  0  0
 13 16  1  0  0  0  0
 15 18  2  0  0  0  0
 15 19  1  0  0  0  0
 16 21  2  0  0  0  0
 16 22  1  0  0  0  0
 17 20  1  0  0  0  0
 18 23  1  0  0  0  0
 19 24  2  0  0  0  0
 20 28  2  0  0  0  0
 20 29  1  0  0  0  0
 21 26  1  0  0  0  0
 22 27  2  0  0  0  0
 23 25  2  0  0  0  0
 24 25  1  0  0  0  0
 26 30  2  0  0  0  0
 27 30  1  0  0  0  0
 28 31  1  0  0  0  0
 29 32  2  0  0  0  0
 31 33  2  0  0  0  0
 32 33  1  0  0  0  0
M  END
> <Acceptable>
false

> <IC50>
0.001

$$$$

Generated by Molecular Materials Informatics

 31 34  0  0  0  0  0  0  0  0999 V2000
    1.6000    2.7713    0.0000 C   0  0  0  0  0  0  0  0  0  0  0  0
   -0.8000    1.3856    0.0000 C   0  0  0  0  0  0  0  0  0  0  0  0
    2.4000    1.3856    0.0000 C   0  0  0  0  0  0  0  0  0  0  0  0
    1.6000    0.0000    0.0000 C   0  0  0  0  0  0  0  0  0  0  0  0
    0.0000    0.0000    0.0000 C   0  0  0  0  0  0  0  0  0  0  0  0
    2.0944   -1.5217    0.0000 C   0  0  0  0  0  0  0  0  0  0  0  0
    0.8000   -2.4621    0.0000 C   0  0  0  0  0  0  0  0  0  0  0  0
   -0.4944   -1.5217    0.0000 C   0  0  0  0  0  0  0  0  0  0  0  0
   -1.9561   -2.1725    0.0000 C   0  0  0  0  0  0  0  0  0  0  0  0
   -2.1233   -3.7637    0.0000 C   0  0  0  0  0  0  0  0  0  0  0  0
   -0.8289   -4.7042    0.0000 C   0  0  0  0  0  0  0  0  0  0  0  0
    0.6328   -4.0534    0.0000 C   0  0  0  0  0  0  0  0  0  0  0  0
   -0.9962   -6.2954    0.0000 Cl  0  0  0  0  0  0  0  0  0  0  0  0
    2.4000    4.1569    0.0000 Cl  0  0  0  0  0  0  0  0  0  0  0  0
   -2.4000    1.3856    0.0000 C   0  0  0  0  0  0  0  0  0  0  0  0
   -3.2000    2.7713    0.0000 C   0  0  0  0  0  0  0  0  0  0  0  0
   -3.2000    0.0000    0.0000 O   0  0  0  0  0  0  0  0  0  0  0  0
   -4.8000    2.7713    0.0000 N   0  0  0  0  0  0  0  0  0  0  0  0
   -5.6000    4.1569    0.0000 C   0  0  0  0  0  0  0  0  0  0  0  0
   -7.2000    4.1569    0.0000 C   0  0  0  0  0  0  0  0  0  0  0  0
   -8.0000    5.5426    0.0000 C   0  0  0  0  0  0  0  0  0  0  0  0
   -9.6000    5.5426    0.0000 C   0  0  0  0  0  0  0  0  0  0  0  0
    0.0000    2.7713    0.0000 C   0  0  0  0  0  0  0  0  0  0  0  0
    3.6161   -2.0161    0.0000 C   0  0  0  0  0  0  0  0  0  0  0  0
    4.8052   -0.9455    0.0000 C   0  0  0  0  0  0  0  0  0  0  0  0
    4.4725    0.6195    0.0000 C   0  0  0  0  0  0  0  0  0  0  0  0
    7.1832    1.1957    0.0000 C   0  0  0  0  0  0  0  0  0  0  0  0
    7.5159   -0.3693    0.0000 C   0  0  0  0  0  0  0  0  0  0  0  0
    5.6615    1.6901    0.0000 C   0  0  0  0  0  0  0  0  0  0  0  0
    6.3268   -1.4399    0.0000 C   0  0  0  0  0  0  0  0  0  0  0  0
    8.3722    2.2663    0.0000 Cl  0  0  0  0  0  0  0  0  0  0  0  0
  1  3  2  0  0  0  0
  1 14  1  0  0  0  0
  1 23  1  0  0  0  0
  2  5  1  0  0  0  0
  2 15  1  0  0  0  0
  2 23  2  0  0  0  0
  3  4  1  0  0  0  0
  4  5  2  0  0  0  0
  4  6  1  0  0  0  0
  5  8  1  0  0  0  0
  6  7  1  0  0  0  0
  6 24  2  0  0  0  0
  7  8  1  0  0  0  0
  7 12  2  0  0  0  0
  8  9  2  0  0  0  0
  9 10  1  0  0  0  0
 10 11  2  0  0  0  0
 11 12  1  0  0  0  0
 11 13  1  0  0  0  0
 15 16  1  0  0  0  0
 15 17  1  1  0  0  0
 16 18  1  0  0  0  0
 18 19  1  0  0  0  0
 19 20  1  0  0  0  0
 20 21  1  0  0  0  0
 21 22  1  0  0  0  0
 24 25  1  0  0  0  0
 25 26  1  0  0  0  0
 25 30  2  0  0  0  0
 26 29  2  0  0  0  0
 27 28  2  0  0  0  0
 27 29  1  0  0  0  0
 27 31  1  0  0  0  0
 28 30  1  0  0  0  0
M  END
> <Acceptable>
false

> <IC50>
5.49

$$$$

Generated by Molecular Materials Informatics

 20 22  0  0  0  0  0  0  0  0999 V2000
   -5.2963    1.6337    0.0000 N   0  0  0  0  0  0  0  0  0  0  0  0
   -6.3846    2.8066    0.0000 C   0  0  0  0  0  0  0  0  0  0  0  0
   -3.7364    1.9897    0.0000 C   0  0  0  0  0  0  0  0  0  0  0  0
   -2.6482    0.8169    0.0000 C   0  0  0  0  0  0  0  0  0  0  0  0
   -1.0883    1.1729    0.0000 C   0  0  0  0  0  0  0  0  0  0  0  0
    0.0000    0.0000    0.0000 N   0  0  0  0  0  0  0  0  0  0  0  0
   -0.5845   -1.4894    0.0000 C   0  0  0  0  0  0  0  0  0  0  0  0
   -2.1845   -1.4894    0.0000 C   0  0  0  0  0  0  0  0  0  0  0  0
   -2.9845   -2.8750    0.0000 C   0  0  0  0  0  0  0  0  0  0  0  0
   -2.1845   -4.2607    0.0000 C   0  0  0  0  0  0  0  0  0  0  0  0
   -0.5845   -4.2607    0.0000 C   0  0  0  0  0  0  0  0  0  0  0  0
    0.2155   -2.8750    0.0000 C   0  0  0  0  0  0  0  0  0  0  0  0
    1.7976   -3.1135    0.0000 C   0  0  0  0  0  0  0  0  0  0  0  0
    2.9705   -2.0252    0.0000 C   0  0  0  0  0  0  0  0  0  0  0  0
    2.8509   -0.4297    0.0000 C   0  0  0  0  0  0  0  0  0  0  0  0
    4.2924    0.2645    0.0000 C   0  0  0  0  0  0  0  0  0  0  0  0
    4.4120    1.8600    0.0000 C   0  0  0  0  0  0  0  0  0  0  0  0
    3.0900    2.7613    0.0000 C   0  0  0  0  0  0  0  0  0  0  0  0
    1.6485    2.0671    0.0000 C   0  0  0  0  0  0  0  0  0  0  0  0
    1.5289    0.4716    0.0000 C   0  0  0  0  0  0  0  0  0  0  0  0
  1  2  1  0  0  0  0
  1  3  1  0  0  0  0
  3  4  1  0  0  0  0
  4  5  1  0  0  0  0
  5  6  1  0  0  0  0
  6  7  1  0  0  0  0
  6 20  1  0  0  0  0
  7  8  1  0  0  0  0
  7 12  2  0  0  0  0
  8  9  2  0  0  0  0
  9 10  1  0  0  0  0
 10 11  2  0  0  0  0
 11 12  1  0  0  0  0
 12 13  1  0  0  0  0
 13 14  1  0  0  0  0
 14 15  1  0  0  0  0
 15 16  1  0  0  0  0
 15 20  2  0  0  0  0
 16 17  2  0  0  0  0
 17 18  1  0  0  0  0
 18 19  2  0  0  0  0
 19 20  1  0  0  0  0
M  END
> <Acceptable>
false

> <IC50>
1.39

$$$$

Generated by Molecular Materials Informatics

 22 25  0  0  0  0  0  0  0  0999 V2000
   -5.6463   -2.9845    0.0000 Cl  0  0  0  0  0  0  0  0  0  0  0  0
   -4.2607   -2.1845    0.0000 C   0  0  0  0  0  0  0  0  0  0  0  0
   -2.8750   -2.9845    0.0000 C   0  0  0  0  0  0  0  0  0  0  0  0
   -1.4894   -2.1845    0.0000 C   0  0  0  0  0  0  0  0  0  0  0  0
   -1.4894   -0.5845    0.0000 C   0  0  0  0  0  0  0  0  0  0  0  0
   -2.8750    0.2155    0.0000 C   0  0  0  0  0  0  0  0  0  0  0  0
   -4.2607   -0.5845    0.0000 C   0  0  0  0  0  0  0  0  0  0  0  0
   -3.1135    1.7976    0.0000 C   0  0  0  0  0  0  0  0  0  0  0  0
   -2.0252    2.9705    0.0000 C   0  0  0  0  0  0  0  0  0  0  0  0
   -0.4297    2.8509    0.0000 C   0  0  0  0  0  0  0  0  0  0  0  0
    0.2645    4.2924    0.0000 C   0  0  0  0  0  0  0  0  0  0  0  0
    1.8600    4.4120    0.0000 C   0  0  0  0  0  0  0  0  0  0  0  0
    2.7613    3.0900    0.0000 C   0  0  0  0  0  0  0  0  0  0  0  0
    2.0671    1.6485    0.0000 N   0  0  0  0  0  0  0  0  0  0  0  0
    0.4716    1.5289    0.0000 C   0  0  0  0  0  0  0  0  0  0  0  0
    0.0000    0.0000    0.0000 C   0  0  0  0  0  0  0  0  0  0  0  0
    1.1729   -1.0883    0.0000 C   0  0  0  0  0  0  0  0  0  0  0  0
    2.7018   -0.6167    0.0000 C   0  0  0  0  0  0  0  0  0  0  0  0
    3.8747   -1.7049    0.0000 C   0  0  0  0  0  0  0  0  0  0  0  0
    3.5186   -3.2648    0.0000 N   0  0  0  0  0  0  0  0  0  0  0  0
    1.9897   -3.7364    0.0000 C   0  0  0  0  0  0  0  0  0  0  0  0
    0.8168   -2.6482    0.0000 C   0  0  0  0  0  0  0  0  0  0  0  0
  1  2  1  0  0  0  0
  2  3  1  0  0  0  0
  2  7  2  0  0  0  0
  3  4  2  0  0  0  0
  4  5  1  0  0  0  0
  5  6  2  0  0  0  0
  5 16  1  0  0  0  0
  6  7  1  0  0  0  0
  6  8  1  0  0  0  0
  8  9  1  0  0  0  0
  9 10  1  0  0  0  0
 10 11  1  0  0  0  0
 10 15  2  0  0  0  0
 11 12  2  0  0  0  0
 12 13  1  0  0  0  0
 13 14  2  0  0  0  0
 14 15  1  0  0  0  0
 15 16  1  0  0  0  0
 16 17  2  0  0  0  0
 17 18  1  0  0  0  0
 17 22  1  0  0  0  0
 18 19  1  0  0  0  0
 19 20  1  0  0  0  0
 20 21  1  0  0  0  0
 21 22  1  0  0  0  0
M  END
> <Acceptable>
false

> <IC50>
4.46

$$$$

Generated by Molecular Materials Informatics

 33 36  0  0  0  0  0  0  0  0999 V2000
   -1.6289    2.2420    0.0000 Cl  0  0  0  0  0  0  0  0  0  0  0  0
   -5.5722   -0.7357    0.0000 S   0  0  0  0  0  0  0  0  0  0  0  0
  -20.1127    2.1268    0.0000 O   0  0  0  0  0  0  0  0  0  0  0  0
   -2.9233    1.3016    0.0000 O   0  0  0  0  0  0  0  0  0  0  0  0
  -16.1127    0.7411    0.0000 N   0  0  0  0  0  0  0  0  0  0  0  0
  -12.9127    0.7411    0.0000 N   0  0  0  0  0  0  0  0  0  0  0  0
  -10.5127    2.1268    0.0000 N   0  0  0  0  0  0  0  0  0  0  0  0
   -8.1127    0.7411    0.0000 N   0  0  0  0  0  0  0  0  0  0  0  0
   -8.1127   -2.0301    0.0000 N   0  0  0  0  0  0  0  0  0  0  0  0
   -5.5722   -3.3246    0.0000 N   0  0  0  0  0  0  0  0  0  0  0  0
   -1.2944   -0.9405    0.0000 N   0  0  0  0  0  0  0  0  0  0  0  0
  -15.3127   -0.6445    0.0000 C   0  0  0  0  0  0  0  0  0  0  0  0
  -15.3127    2.1268    0.0000 C   0  0  0  0  0  0  0  0  0  0  0  0
  -13.7127   -0.6445    0.0000 C   0  0  0  0  0  0  0  0  0  0  0  0
  -13.7127    2.1268    0.0000 C   0  0  0  0  0  0  0  0  0  0  0  0
  -17.7127    0.7411    0.0000 C   0  0  0  0  0  0  0  0  0  0  0  0
  -11.3127    0.7411    0.0000 C   0  0  0  0  0  0  0  0  0  0  0  0
  -18.5127    2.1268    0.0000 C   0  0  0  0  0  0  0  0  0  0  0  0
  -10.5127   -0.6445    0.0000 C   0  0  0  0  0  0  0  0  0  0  0  0
   -8.9127   -0.6445    0.0000 C   0  0  0  0  0  0  0  0  0  0  0  0
   -8.9127    2.1268    0.0000 C   0  0  0  0  0  0  0  0  0  0  0  0
   -8.1127    3.5124    0.0000 C   0  0  0  0  0  0  0  0  0  0  0  0
   -6.5127   -2.0301    0.0000 C   0  0  0  0  0  0  0  0  0  0  0  0
   -4.0505   -1.2301    0.0000 C   0  0  0  0  0  0  0  0  0  0  0  0
    0.0000    0.0000    0.0000 C   0  0  0  0  0  0  0  0  0  0  0  0
   -4.0505   -2.8301    0.0000 C   0  0  0  0  0  0  0  0  0  0  0  0
    1.4617   -0.6508    0.0000 C   0  0  0  0  0  0  0  0  0  0  0  0
   -2.7561   -0.2897    0.0000 C   0  0  0  0  0  0  0  0  0  0  0  0
   -0.1672    1.5912    0.0000 C   0  0  0  0  0  0  0  0  0  0  0  0
    2.7561    0.2897    0.0000 C   0  0  0  0  0  0  0  0  0  0  0  0
    1.6289   -2.2420    0.0000 C   0  0  0  0  0  0  0  0  0  0  0  0
    1.1272    2.5317    0.0000 C   0  0  0  0  0  0  0  0  0  0  0  0
    2.5889    1.8809    0.0000 C   0  0  0  0  0  0  0  0  0  0  0  0
  1 29  1  0  0  0  0
  2 23  1  0  0  0  0
  2 24  1  0  0  0  0
  3 18  1  0  0  0  0
  4 28  2  0  0  0  0
  5 12  1  0  0  0  0
  5 13  1  0  0  0  0
  5 16  1  0  0  0  0
  6 14  1  0  0  0  0
  6 15  1  0  0  0  0
  6 17  1  0  0  0  0
  7 17  2  0  0  0  0
  7 21  1  0  0  0  0
  8 20  1  0  0  0  0
  8 21  2  0  0  0  0
  9 20  1  0  0  0  0
  9 23  1  0  0  0  0
 10 23  2  0  0  0  0
 10 26  1  0  0  0  0
 11 25  1  0  0  0  0
 11 28  1  0  0  0  0
 12 14  1  0  0  0  0
 13 15  1  0  0  0  0
 16 18  1  0  0  0  0
 17 19  1  0  0  0  0
 19 20  2  0  0  0  0
 21 22  1  0  0  0  0
 24 26  2  0  0  0  0
 24 28  1  0  0  0  0
 25 27  2  0  0  0  0
 25 29  1  0  0  0  0
 27 30  1  0  0  0  0
 27 31  1  0  0  0  0
 29 32  2  0  0  0  0
 30 33  2  0  0  0  0
 32 33  1  0  0  0  0
M  END
> <Acceptable>
true

> <IC50>
238

$$$$

Generated by Molecular Materials Informatics

 16 16  0  0  0  0  0  0  0  0999 V2000
   -1.3856    2.4000    0.0000 F   0  0  0  0  0  0  0  0  0  0  0  0
   -1.3856    0.8000    0.0000 C   0  0  0  0  0  0  0  0  0  0  0  0
   -2.7713    0.0000    0.0000 F   0  0  0  0  0  0  0  0  0  0  0  0
   -2.7713    1.6000    0.0000 F   0  0  0  0  0  0  0  0  0  0  0  0
    0.0000    0.0000    0.0000 C   0  0  0  0  0  0  0  0  0  0  0  0
    0.0000   -1.6000    0.0000 C   0  0  0  0  0  0  0  0  0  0  0  0
    1.3856   -2.4000    0.0000 C   0  0  0  0  0  0  0  0  0  0  0  0
    2.7713   -1.6000    0.0000 C   0  0  0  0  0  0  0  0  0  0  0  0
    2.7713    0.0000    0.0000 C   0  0  0  0  0  0  0  0  0  0  0  0
    1.3856    0.8000    0.0000 C   0  0  0  0  0  0  0  0  0  0  0  0
    4.1569    0.8000    0.0000 C   0  0  0  0  0  0  0  0  0  0  0  0
    5.5426    0.0000    0.0000 C   0  0  0  0  0  0  0  0  0  0  0  0
    6.9282    0.8000    0.0000 N   0  0  0  0  0  0  0  0  0  0  0  0
    8.3138    0.0000    0.0000 C   0  0  0  0  0  0  0  0  0  0  0  0
    9.6995    0.8000    0.0000 C   0  0  0  0  0  0  0  0  0  0  0  0
    5.5426   -1.6000    0.0000 C   0  0  0  0  0  0  0  0  0  0  0  0
  1  2  1  0  0  0  0
  2  3  1  0  0  0  0
  2  4  1  0  0  0  0
  2  5  1  0  0  0  0
  5  6  1  0  0  0  0
  5 10  2  0  0  0  0
  6  7  2  0  0  0  0
  7  8  1  0  0  0  0
  8  9  2  0  0  0  0
  9 10  1  0  0  0  0
  9 11  1  0  0  0  0
 11 12  1  0  0  0  0
 12 13  1  0  0  0  0
 12 16  1  1  0  0  0
 13 14  1  0  0  0  0
 14 15  1  0  0  0  0
M  END
> <Acceptable>
false

> <IC50>
N/A

$$$$

Generated by Molecular Materials Informatics

 19 20  0  0  0  0  0  0  0  0999 V2000
   -3.2000   -2.7713    0.0000 O   0  0  0  0  0  0  0  0  0  0  0  0
   -3.2000    2.7713    0.0000 O   0  0  0  0  0  0  0  0  0  0  0  0
    7.2000    1.3856    0.0000 O   0  0  0  0  0  0  0  0  0  0  0  0
    7.2000   -4.1569    0.0000 O   0  0  0  0  0  0  0  0  0  0  0  0
    0.0000    0.0000    0.0000 N   0  0  0  0  0  0  0  0  0  0  0  0
    4.0000   -1.3856    0.0000 N   0  0  0  0  0  0  0  0  0  0  0  0
   -3.2000    0.0000    0.0000 N   0  0  0  0  0  0  0  0  0  0  0  0
    7.2000   -1.3856    0.0000 N   0  0  0  0  0  0  0  0  0  0  0  0
    1.6000    0.0000    0.0000 C   0  0  0  0  0  0  0  0  0  0  0  0
    2.4000   -1.3856    0.0000 C   0  0  0  0  0  0  0  0  0  0  0  0
   -0.8000   -1.3856    0.0000 C   0  0  0  0  0  0  0  0  0  0  0  0
   -0.8000    1.3856    0.0000 C   0  0  0  0  0  0  0  0  0  0  0  0
    2.4000    1.3856    0.0000 C   0  0  0  0  0  0  0  0  0  0  0  0
    4.8000    0.0000    0.0000 C   0  0  0  0  0  0  0  0  0  0  0  0
    4.8000   -2.7713    0.0000 C   0  0  0  0  0  0  0  0  0  0  0  0
   -2.4000   -1.3856    0.0000 C   0  0  0  0  0  0  0  0  0  0  0  0
   -2.4000    1.3856    0.0000 C   0  0  0  0  0  0  0  0  0  0  0  0
    6.4000    0.0000    0.0000 C   0  0  0  0  0  0  0  0  0  0  0  0
    6.4000   -2.7713    0.0000 C   0  0  0  0  0  0  0  0  0  0  0  0
  1 16  2  0  0  0  0
  2 17  2  0  0  0  0
  3 18  2  0  0  0  0
  4 19  2  0  0  0  0
  5  9  1  0  0  0  0
  5 11  1  0  0  0  0
  5 12  1  0  0  0  0
  6 10  1  0  0  0  0
  6 14  1  0  0  0  0
  6 15  1  0  0  0  0
  7 16  1  0  0  0  0
  7 17  1  0  0  0  0
  8 18  1  0  0  0  0
  8 19  1  0  0  0  0
  9 10  1  0  0  0  0
  9 13  1  1  0  0  0
 11 16  1  0  0  0  0
 12 17  1  0  0  0  0
 14 18  1  0  0  0  0
 15 19  1  0  0  0  0
M  END
> <Acceptable>
true

> <IC50>
>30

$$$$

Generated by Molecular Materials Informatics

 20 23  0  0  0  0  0  0  0  0999 V2000
    4.8000    2.7713    0.0000 O   0  0  0  0  0  0  0  0  0  0  0  0
    1.1620   -2.4716    0.0000 N   0  0  0  0  0  0  0  0  0  0  0  0
    0.0000    0.0000    0.0000 C   0  0  0  0  0  0  0  0  0  0  0  0
   -0.8000   -1.3856    0.0000 C   0  0  0  0  0  0  0  0  0  0  0  0
    0.0000   -2.7713    0.0000 C   0  0  0  0  0  0  0  0  0  0  0  0
    1.1620   -0.2997    0.0000 C   0  0  0  0  0  0  0  0  0  0  0  0
   -0.8000    1.3856    0.0000 C   0  0  0  0  0  0  0  0  0  0  0  0
   -2.4000   -1.3856    0.0000 C   0  0  0  0  0  0  0  0  0  0  0  0
    1.6000    0.0000    0.0000 C   0  0  0  0  0  0  0  0  0  0  0  0
    1.6000   -2.7713    0.0000 C   0  0  0  0  0  0  0  0  0  0  0  0
    1.6725   -1.3856    0.0000 C   0  0  0  0  0  0  0  0  0  0  0  0
   -2.4000    1.3856    0.0000 C   0  0  0  0  0  0  0  0  0  0  0  0
   -3.2000    0.0000    0.0000 C   0  0  0  0  0  0  0  0  0  0  0  0
    2.4000   -1.3856    0.0000 C   0  0  0  0  0  0  0  0  0  0  0  0
    2.4000    1.3856    0.0000 C   0  0  0  0  0  0  0  0  0  0  0  0
    2.1827   -3.7037    0.0000 C   0  0  0  0  0  0  0  0  0  0  0  0
    4.0000   -1.3856    0.0000 C   0  0  0  0  0  0  0  0  0  0  0  0
    4.0000    1.3856    0.0000 C   0  0  0  0  0  0  0  0  0  0  0  0
    4.8000    0.0000    0.0000 C   0  0  0  0  0  0  0  0  0  0  0  0
    6.4000    2.7713    0.0000 C   0  0  0  0  0  0  0  0  0  0  0  0
  1 18  1  0  0  0  0
  1 20  1  0  0  0  0
  2  5  1  0  0  0  0
  2 11  1  0  0  0  0
  2 16  1  1  0  0  0
  3  4  1  0  0  0  0
  3  6  1  0  0  0  0
  3  7  1  0  0  0  0
  3  9  1  1  0  0  0
  4  5  1  0  0  0  0
  4  8  1  1  0  0  0
  5 10  1  1  0  0  0
  6 11  1  0  0  0  0
  7 12  1  0  0  0  0
  8 13  1  0  0  0  0
  9 14  2  0  0  0  0
  9 15  1  0  0  0  0
 10 14  1  0  0  0  0
 12 13  1  0  0  0  0
 14 17  1  0  0  0  0
 15 18  2  0  0  0  0
 17 19  2  0  0  0  0
 18 19  1  0  0  0  0
M  END
> <Acceptable>
false

> <IC50>
5.1

$$$$

Generated by Molecular Materials Informatics

 20 22  0  0  0  0  0  0  0  0999 V2000
    2.7713    3.2000    0.0000 Cl  0  0  0  0  0  0  0  0  0  0  0  0
    1.3856    2.4000    0.0000 C   0  0  0  0  0  0  0  0  0  0  0  0
    0.0000    3.2000    0.0000 C   0  0  0  0  0  0  0  0  0  0  0  0
   -1.3856    2.4000    0.0000 C   0  0  0  0  0  0  0  0  0  0  0  0
   -1.3856    0.8000    0.0000 C   0  0  0  0  0  0  0  0  0  0  0  0
   -2.8750    0.2155    0.0000 N   0  0  0  0  0  0  0  0  0  0  0  0
   -4.0479    1.3037    0.0000 C   0  0  0  0  0  0  0  0  0  0  0  0
   -3.3466   -1.3135    0.0000 C   0  0  0  0  0  0  0  0  0  0  0  0
   -4.9288   -1.5519    0.0000 O   0  0  0  0  0  0  0  0  0  0  0  0
   -2.4453   -2.6354    0.0000 C   0  0  0  0  0  0  0  0  0  0  0  0
   -0.8498   -2.7550    0.0000 N   0  0  0  0  0  0  0  0  0  0  0  0
    0.2385   -1.5821    0.0000 C   0  0  0  0  0  0  0  0  0  0  0  0
    0.0000    0.0000    0.0000 C   0  0  0  0  0  0  0  0  0  0  0  0
    1.3856    0.8000    0.0000 C   0  0  0  0  0  0  0  0  0  0  0  0
    1.7674   -2.0537    0.0000 C   0  0  0  0  0  0  0  0  0  0  0  0
    2.1234   -3.6136    0.0000 C   0  0  0  0  0  0  0  0  0  0  0  0
    3.6523   -4.0852    0.0000 C   0  0  0  0  0  0  0  0  0  0  0  0
    4.8252   -2.9970    0.0000 C   0  0  0  0  0  0  0  0  0  0  0  0
    4.4692   -1.4371    0.0000 C   0  0  0  0  0  0  0  0  0  0  0  0
    2.9403   -0.9655    0.0000 C   0  0  0  0  0  0  0  0  0  0  0  0
  1  2  1  0  0  0  0
  2  3  1  0  0  0  0
  2 14  2  0  0  0  0
  3  4  2  0  0  0  0
  4  5  1  0  0  0  0
  5  6  1  0  0  0  0
  5 13  2  0  0  0  0
  6  7  1  0  0  0  0
  6  8  1  0  0  0  0
  8  9  2  0  0  0  0
  8 10  1  0  0  0  0
 10 11  1  0  0  0  0
 11 12  2  0  0  0  0
 12 13  1  0  0  0  0
 12 15  1  0  0  0  0
 13 14  1  0  0  0  0
 15 16  1  0  0  0  0
 15 20  2  0  0  0  0
 16 17  2  0  0  0  0
 17 18  1  0  0  0  0
 18 19  2  0  0  0  0
 19 20  1  0  0  0  0
M  END
> <Acceptable>
true

> <IC50>
N/A

$$$$

Generated by Molecular Materials Informatics

 16 16  0  0  0  0  0  0  0  0999 V2000
   -1.3856    4.0000    0.0000 Cl  0  0  0  0  0  0  0  0  0  0  0  0
   -1.3856    2.4000    0.0000 C   0  0  0  0  0  0  0  0  0  0  0  0
   -2.7713    1.6000    0.0000 C   0  0  0  0  0  0  0  0  0  0  0  0
   -2.7713    0.0000    0.0000 C   0  0  0  0  0  0  0  0  0  0  0  0
   -4.1569   -0.8000    0.0000 S   0  0  0  0  0  0  0  0  0  0  0  0
   -3.3569   -2.1856    0.0000 O   0  0  0  0  0  0  0  0  0  0  0  0
   -4.9569    0.5856    0.0000 O   0  0  0  0  0  0  0  0  0  0  0  0
   -5.5426   -1.6000    0.0000 N   0  0  0  0  0  0  0  0  0  0  0  0
   -1.3856   -0.8000    0.0000 C   0  0  0  0  0  0  0  0  0  0  0  0
    0.0000    0.0000    0.0000 C   0  0  0  0  0  0  0  0  0  0  0  0
    1.3856   -0.8000    0.0000 S   0  0  0  0  0  0  0  0  0  0  0  0
    2.1856    0.5856    0.0000 O   0  0  0  0  0  0  0  0  0  0  0  0
    0.5856   -2.1856    0.0000 O   0  0  0  0  0  0  0  0  0  0  0  0
    2.7713   -1.6000    0.0000 N   0  0  0  0  0  0  0  0  0  0  0  0
    0.0000    1.6000    0.0000 C   0  0  0  0  0  0  0  0  0  0  0  0
    1.3856    2.4000    0.0000 Cl  0  0  0  0  0  0  0  0  0  0  0  0
  1  2  1  0  0  0  0
  2  3  1  0  0  0  0
  2 15  2  0  0  0  0
  3  4  2  0  0  0  0
  4  5  1  0  0  0  0
  4  9  1  0  0  0  0
  5  6  2  0  0  0  0
  5  7  2  0  0  0  0
  5  8  1  0  0  0  0
  9 10  2  0  0  0  0
 10 11  1  0  0  0  0
 10 15  1  0  0  0  0
 11 12  2  0  0  0  0
 11 13  2  0  0  0  0
 11 14  1  0  0  0  0
 15 16  1  0  0  0  0
M  END
> <Acceptable>
true

> <IC50>
N/A

$$$$

Generated by Molecular Materials Informatics

 19 20  0  0  0  0  0  0  0  0999 V2000
    0.0000    2.7713    0.0000 Cl  0  0  0  0  0  0  0  0  0  0  0  0
   -0.8000    1.3856    0.0000 C   0  0  0  0  0  0  0  0  0  0  0  0
   -2.4000    1.3856    0.0000 C   0  0  0  0  0  0  0  0  0  0  0  0
   -3.2000    0.0000    0.0000 C   0  0  0  0  0  0  0  0  0  0  0  0
   -2.4000   -1.3856    0.0000 C   0  0  0  0  0  0  0  0  0  0  0  0
   -0.8000   -1.3856    0.0000 C   0  0  0  0  0  0  0  0  0  0  0  0
    0.0000   -2.7713    0.0000 Cl  0  0  0  0  0  0  0  0  0  0  0  0
    0.0000    0.0000    0.0000 C   0  0  0  0  0  0  0  0  0  0  0  0
    1.6000    0.0000    0.0000 N   0  0  0  0  0  0  0  0  0  0  0  0
    2.6285    1.2257    0.0000 C   0  0  0  0  0  0  0  0  0  0  0  0
    2.0812    2.7292    0.0000 C   0  0  0  0  0  0  0  0  0  0  0  0
    3.1097    3.9549    0.0000 C   0  0  0  0  0  0  0  0  0  0  0  0
    4.6854    3.6770    0.0000 C   0  0  0  0  0  0  0  0  0  0  0  0
    5.2326    2.1735    0.0000 C   0  0  0  0  0  0  0  0  0  0  0  0
    4.2042    0.9478    0.0000 C   0  0  0  0  0  0  0  0  0  0  0  0
    4.7514   -0.5557    0.0000 C   0  0  0  0  0  0  0  0  0  0  0  0
    6.3271   -0.8335    0.0000 C   0  0  0  0  0  0  0  0  0  0  0  0
    6.8743   -2.3370    0.0000 O   0  0  0  0  0  0  0  0  0  0  0  0
    7.3555    0.3922    0.0000 O   0  0  0  0  0  0  0  0  0  0  0  0
  1  2  1  0  0  0  0
  2  3  1  0  0  0  0
  2  8  2  0  0  0  0
  3  4  2  0  0  0  0
  4  5  1  0  0  0  0
  5  6  2  0  0  0  0
  6  7  1  0  0  0  0
  6  8  1  0  0  0  0
  8  9  1  0  0  0  0
  9 10  1  0  0  0  0
 10 11  1  0  0  0  0
 10 15  2  0  0  0  0
 11 12  2  0  0  0  0
 12 13  1  0  0  0  0
 13 14  2  0  0  0  0
 14 15  1  0  0  0  0
 15 16  1  0  0  0  0
 16 17  1  0  0  0  0
 17 18  2  0  0  0  0
 17 19  1  0  0  0  0
M  END
> <Acceptable>
true

> <IC50>
N/A

$$$$

Generated by Molecular Materials Informatics

 17 19  0  0  0  0  0  0  0  0999 V2000
   -4.1569    0.8000    0.0000 O   0  0  0  0  0  0  0  0  0  0  0  0
   -2.7713    0.0000    0.0000 C   0  0  0  0  0  0  0  0  0  0  0  0
   -2.7713   -1.6000    0.0000 N   0  0  0  0  0  0  0  0  0  0  0  0
   -1.3856   -2.4000    0.0000 C   0  0  0  0  0  0  0  0  0  0  0  0
    0.0000   -1.6000    0.0000 N   0  0  0  0  0  0  0  0  0  0  0  0
    0.0000    0.0000    0.0000 C   0  0  0  0  0  0  0  0  0  0  0  0
    1.1890    1.0706    0.0000 N   0  0  0  0  0  0  0  0  0  0  0  0
    0.5383    2.5323    0.0000 C   0  0  0  0  0  0  0  0  0  0  0  0
   -1.0530    2.3650    0.0000 N   0  0  0  0  0  0  0  0  0  0  0  0
   -1.3856    0.8000    0.0000 C   0  0  0  0  0  0  0  0  0  0  0  0
    2.7541    0.7379    0.0000 C   0  0  0  0  0  0  0  0  0  0  0  0
    3.4048   -0.7237    0.0000 O   0  0  0  0  0  0  0  0  0  0  0  0
    4.9961   -0.5565    0.0000 C   0  0  0  0  0  0  0  0  0  0  0  0
    5.3287    1.0086    0.0000 C   0  0  0  0  0  0  0  0  0  0  0  0
    3.9431    1.8086    0.0000 C   0  0  0  0  0  0  0  0  0  0  0  0
    6.0667   -1.7455    0.0000 C   0  0  0  0  0  0  0  0  0  0  0  0
    7.6317   -1.4129    0.0000 O   0  0  0  0  0  0  0  0  0  0  0  0
  1  2  2  0  0  0  0
  2  3  1  0  0  0  0
  2 10  1  0  0  0  0
  3  4  2  0  0  0  0
  4  5  1  0  0  0  0
  5  6  1  0  0  0  0
  6  7  1  0  0  0  0
  6 10  2  0  0  0  0
  7  8  1  0  0  0  0
 11  7  1  1  0  0  0
  8  9  2  0  0  0  0
  9 10  1  0  0  0  0
 11 12  1  0  0  0  0
 11 15  1  0  0  0  0
 12 13  1  0  0  0  0
 13 14  1  0  0  0  0
 13 16  1  6  0  0  0
 14 15  1  0  0  0  0
 16 17  1  0  0  0  0
M  END
> <Acceptable>
true

> <IC50>
N/A

$$$$

Generated by Molecular Materials Informatics

 32 35  0  0  0  0  0  0  0  0999 V2000
    9.0511    4.1813    0.0000 O   0  0  0  0  0  0  0  0  0  0  0  0
    7.4754    3.9035    0.0000 C   0  0  0  0  0  0  0  0  0  0  0  0
    6.4470    5.1292    0.0000 O   0  0  0  0  0  0  0  0  0  0  0  0
    6.9282    2.4000    0.0000 C   0  0  0  0  0  0  0  0  0  0  0  0
    6.9282    0.8000    0.0000 C   0  0  0  0  0  0  0  0  0  0  0  0
    5.5426    0.0000    0.0000 C   0  0  0  0  0  0  0  0  0  0  0  0
    4.1569    0.8000    0.0000 N   0  0  0  0  0  0  0  0  0  0  0  0
    4.1569    2.4000    0.0000 C   0  0  0  0  0  0  0  0  0  0  0  0
    5.5426    3.2000    0.0000 C   0  0  0  0  0  0  0  0  0  0  0  0
    2.7713    0.0000    0.0000 C   0  0  0  0  0  0  0  0  0  0  0  0
    1.3856    0.8000    0.0000 C   0  0  0  0  0  0  0  0  0  0  0  0
    0.0000    0.0000    0.0000 C   0  0  0  0  0  0  0  0  0  0  0  0
    0.8000   -1.3856    0.0000 C   0  0  0  0  0  0  0  0  0  0  0  0
    1.6000   -2.7713    0.0000 N   0  0  0  0  0  0  0  0  0  0  0  0
   -0.8000    1.3856    0.0000 C   0  0  0  0  0  0  0  0  0  0  0  0
   -2.4000    1.3856    0.0000 C   0  0  0  0  0  0  0  0  0  0  0  0
   -3.2000    2.7713    0.0000 C   0  0  0  0  0  0  0  0  0  0  0  0
   -2.4000    4.1569    0.0000 C   0  0  0  0  0  0  0  0  0  0  0  0
   -0.8000    4.1569    0.0000 C   0  0  0  0  0  0  0  0  0  0  0  0
    0.0000    2.7713    0.0000 C   0  0  0  0  0  0  0  0  0  0  0  0
   -1.3856   -0.8000    0.0000 C   0  0  0  0  0  0  0  0  0  0  0  0
   -1.3856   -2.4000    0.0000 C   0  0  0  0  0  0  0  0  0  0  0  0
   -2.7713   -3.2000    0.0000 C   0  0  0  0  0  0  0  0  0  0  0  0
   -4.1569   -2.4000    0.0000 C   0  0  0  0  0  0  0  0  0  0  0  0
   -4.1569   -0.8000    0.0000 C   0  0  0  0  0  0  0  0  0  0  0  0
   -2.7713    0.0000    0.0000 C   0  0  0  0  0  0  0  0  0  0  0  0
    8.5039    2.1222    0.0000 C   0  0  0  0  0  0  0  0  0  0  0  0
    9.5324    3.3478    0.0000 C   0  0  0  0  0  0  0  0  0  0  0  0
   11.1080    3.0700    0.0000 C   0  0  0  0  0  0  0  0  0  0  0  0
   11.6553    1.5665    0.0000 C   0  0  0  0  0  0  0  0  0  0  0  0
   10.6268    0.3408    0.0000 C   0  0  0  0  0  0  0  0  0  0  0  0
    9.0511    0.6187    0.0000 C   0  0  0  0  0  0  0  0  0  0  0  0
  1  2  2  0  0  0  0
  2  3  1  0  0  0  0
  2  4  1  0  0  0  0
  4  5  1  0  0  0  0
  4  9  1  0  0  0  0
  4 27  1  6  0  0  0
  5  6  1  0  0  0  0
  6  7  1  0  0  0  0
  7  8  1  0  0  0  0
  7 10  1  1  0  0  0
  8  9  1  0  0  0  0
 10 11  1  0  0  0  0
 11 12  1  0  0  0  0
 12 13  1  0  0  0  0
 12 15  1  0  0  0  0
 12 21  1  0  0  0  0
 13 14  3  0  0  0  0
 15 16  1  0  0  0  0
 15 20  2  0  0  0  0
 16 17  2  0  0  0  0
 17 18  1  0  0  0  0
 18 19  2  0  0  0  0
 19 20  1  0  0  0  0
 21 22  1  0  0  0  0
 21 26  2  0  0  0  0
 22 23  2  0  0  0  0
 23 24  1  0  0  0  0
 24 25  2  0  0  0  0
 25 26  1  0  0  0  0
 27 28  1  0  0  0  0
 27 32  2  0  0  0  0
 28 29  2  0  0  0  0
 29 30  1  0  0  0  0
 30 31  2  0  0  0  0
 31 32  1  0  0  0  0
M  END
> <Acceptable>
true

> <IC50>
N/A

$$$$

Generated by Molecular Materials Informatics

 18 19  0  0  0  0  0  0  0  0999 V2000
   -4.8000    0.0000    0.0000 F   0  0  0  0  0  0  0  0  0  0  0  0
   -3.2000    0.0000    0.0000 C   0  0  0  0  0  0  0  0  0  0  0  0
   -2.4000   -1.3856    0.0000 C   0  0  0  0  0  0  0  0  0  0  0  0
   -0.8000   -1.3856    0.0000 C   0  0  0  0  0  0  0  0  0  0  0  0
    0.0000    0.0000    0.0000 C   0  0  0  0  0  0  0  0  0  0  0  0
   -0.8000    1.3856    0.0000 C   0  0  0  0  0  0  0  0  0  0  0  0
    0.0000    2.7713    0.0000 F   0  0  0  0  0  0  0  0  0  0  0  0
   -2.4000    1.3856    0.0000 C   0  0  0  0  0  0  0  0  0  0  0  0
    1.6000    0.0000    0.0000 C   0  0  0  0  0  0  0  0  0  0  0  0
    2.4000   -1.3856    0.0000 C   0  0  0  0  0  0  0  0  0  0  0  0
    4.0000   -1.3856    0.0000 C   0  0  0  0  0  0  0  0  0  0  0  0
    4.8000    0.0000    0.0000 C   0  0  0  0  0  0  0  0  0  0  0  0
    6.4000    0.0000    0.0000 O   0  0  0  0  0  0  0  0  0  0  0  0
    4.0000    1.3856    0.0000 C   0  0  0  0  0  0  0  0  0  0  0  0
    2.4000    1.3856    0.0000 C   0  0  0  0  0  0  0  0  0  0  0  0
    4.8000    2.7713    0.0000 C   0  0  0  0  0  0  0  0  0  0  0  0
    6.4000    2.7713    0.0000 O   0  0  0  0  0  0  0  0  0  0  0  0
    4.0000    4.1569    0.0000 O   0  0  0  0  0  0  0  0  0  0  0  0
  1  2  1  0  0  0  0
  2  3  1  0  0  0  0
  2  8  2  0  0  0  0
  3  4  2  0  0  0  0
  4  5  1  0  0  0  0
  5  6  2  0  0  0  0
  5  9  1  0  0  0  0
  6  7  1  0  0  0  0
  6  8  1  0  0  0  0
  9 10  1  0  0  0  0
  9 15  2  0  0  0  0
 10 11  2  0  0  0  0
 11 12  1  0  0  0  0
 12 13  1  0  0  0  0
 12 14  2  0  0  0  0
 14 15  1  0  0  0  0
 14 16  1  0  0  0  0
 16 17  2  0  0  0  0
 16 18  1  0  0  0  0
M  END
> <Acceptable>
true

> <IC50>
N/A

$$$$

Generated by Molecular Materials Informatics

 54 61  0  0  0  0  0  0  0  0999 V2000
   -0.1672    1.5912    0.0000 O   0  0  0  0  0  0  0  0  0  0  0  0
    8.3138    3.2000    0.0000 O   0  0  0  0  0  0  0  0  0  0  0  0
   -3.5378   -5.7105    0.0000 O   0  0  0  0  0  0  0  0  0  0  0  0
    9.6995    0.8000    0.0000 O   0  0  0  0  0  0  0  0  0  0  0  0
   -1.5217   -7.7267    0.0000 O   0  0  0  0  0  0  0  0  0  0  0  0
   13.8564    3.2000    0.0000 O   0  0  0  0  0  0  0  0  0  0  0  0
   13.8564    0.0000    0.0000 O   0  0  0  0  0  0  0  0  0  0  0  0
   16.6277    0.0000    0.0000 O   0  0  0  0  0  0  0  0  0  0  0  0
   19.3990    3.2000    0.0000 O   0  0  0  0  0  0  0  0  0  0  0  0
   16.6277    4.8000    0.0000 O   0  0  0  0  0  0  0  0  0  0  0  0
   20.7846    0.8000    0.0000 O   0  0  0  0  0  0  0  0  0  0  0  0
   24.9415    3.2000    0.0000 O   0  0  0  0  0  0  0  0  0  0  0  0
   24.9415    0.0000    0.0000 O   0  0  0  0  0  0  0  0  0  0  0  0
    0.0000    0.0000    0.0000 C   0  0  0  0  0  0  0  0  0  0  0  0
    1.3856    0.8000    0.0000 C   0  0  0  0  0  0  0  0  0  0  0  0
    2.7713    0.0000    0.0000 C   0  0  0  0  0  0  0  0  0  0  0  0
    0.0000   -1.6000    0.0000 C   0  0  0  0  0  0  0  0  0  0  0  0
    4.1569    0.8000    0.0000 C   0  0  0  0  0  0  0  0  0  0  0  0
    4.1569    2.4000    0.0000 C   0  0  0  0  0  0  0  0  0  0  0  0
    2.7713   -1.6000    0.0000 C   0  0  0  0  0  0  0  0  0  0  0  0
    1.3856   -2.4000    0.0000 C   0  0  0  0  0  0  0  0  0  0  0  0
   -1.5217   -2.0944    0.0000 C   0  0  0  0  0  0  0  0  0  0  0  0
    1.3856    2.4000    0.0000 C   0  0  0  0  0  0  0  0  0  0  0  0
   -1.5217    0.4944    0.0000 C   0  0  0  0  0  0  0  0  0  0  0  0
    2.7713    3.2000    0.0000 C   0  0  0  0  0  0  0  0  0  0  0  0
   -2.4621   -0.8000    0.0000 C   0  0  0  0  0  0  0  0  0  0  0  0
    5.5426    0.0000    0.0000 C   0  0  0  0  0  0  0  0  0  0  0  0
    5.5426    3.2000    0.0000 C   0  0  0  0  0  0  0  0  0  0  0  0
   -0.1672   -3.1912    0.0000 C   0  0  0  0  0  0  0  0  0  0  0  0
    4.1569   -0.8000    0.0000 C   0  0  0  0  0  0  0  0  0  0  0  0
    6.9282    0.8000    0.0000 C   0  0  0  0  0  0  0  0  0  0  0  0
    6.9282    2.4000    0.0000 C   0  0  0  0  0  0  0  0  0  0  0  0
   -2.0161   -3.6161    0.0000 C   0  0  0  0  0  0  0  0  0  0  0  0
   -3.5378   -4.1105    0.0000 C   0  0  0  0  0  0  0  0  0  0  0  0
   -1.0757   -4.9105    0.0000 C   0  0  0  0  0  0  0  0  0  0  0  0
    9.6995    2.4000    0.0000 C   0  0  0  0  0  0  0  0  0  0  0  0
   -2.0161   -6.2050    0.0000 C   0  0  0  0  0  0  0  0  0  0  0  0
   11.0851    3.2000    0.0000 C   0  0  0  0  0  0  0  0  0  0  0  0
   12.4708    2.4000    0.0000 C   0  0  0  0  0  0  0  0  0  0  0  0
   11.0851    0.0000    0.0000 C   0  0  0  0  0  0  0  0  0  0  0  0
   12.4708    0.8000    0.0000 C   0  0  0  0  0  0  0  0  0  0  0  0
   11.0851   -1.6000    0.0000 C   0  0  0  0  0  0  0  0  0  0  0  0
   15.2420    0.8000    0.0000 C   0  0  0  0  0  0  0  0  0  0  0  0
   15.2420    2.4000    0.0000 C   0  0  0  0  0  0  0  0  0  0  0  0
   16.6277    3.2000    0.0000 C   0  0  0  0  0  0  0  0  0  0  0  0
   18.0133    0.8000    0.0000 C   0  0  0  0  0  0  0  0  0  0  0  0
   18.0133    2.4000    0.0000 C   0  0  0  0  0  0  0  0  0  0  0  0
   19.3990    0.0000    0.0000 C   0  0  0  0  0  0  0  0  0  0  0  0
   20.7846    2.4000    0.0000 C   0  0  0  0  0  0  0  0  0  0  0  0
   22.1702    3.2000    0.0000 C   0  0  0  0  0  0  0  0  0  0  0  0
   23.5559    2.4000    0.0000 C   0  0  0  0  0  0  0  0  0  0  0  0
   22.1702    0.0000    0.0000 C   0  0  0  0  0  0  0  0  0  0  0  0
   23.5559    0.8000    0.0000 C   0  0  0  0  0  0  0  0  0  0  0  0
   22.1702   -1.6000    0.0000 C   0  0  0  0  0  0  0  0  0  0  0  0
 14  1  1  1  0  0  0
 32  2  1  1  0  0  0
 36  2  1  1  0  0  0
  3 34  1  0  0  0  0
  3 37  1  0  0  0  0
  4 36  1  0  0  0  0
  4 40  1  0  0  0  0
  5 37  2  0  0  0  0
 39  6  1  6  0  0  0
 41  7  1  6  0  0  0
 43  7  1  1  0  0  0
  8 43  1  0  0  0  0
  8 46  1  0  0  0  0
 47  9  1  6  0  0  0
 49  9  1  1  0  0  0
 45 10  1  6  0  0  0
 11 49  1  0  0  0  0
 11 52  1  0  0  0  0
 51 12  1  6  0  0  0
 53 13  1  6  0  0  0
 14 15  1  0  0  0  0
 14 17  1  0  0  0  0
 14 24  1  0  0  0  0
 15 16  1  0  0  0  0
 15 23  1  6  0  0  0
 16 18  1  0  0  0  0
 16 20  1  1  0  0  0
 17 21  1  0  0  0  0
 17 22  1  0  0  0  0
 17 29  1  1  0  0  0
 18 19  1  0  0  0  0
 18 27  1  0  0  0  0
 18 30  1  1  0  0  0
 19 25  1  6  0  0  0
 19 28  1  0  0  0  0
 20 21  1  0  0  0  0
 22 26  1  0  0  0  0
 22 33  1  1  0  0  0
 23 25  1  0  0  0  0
 24 26  1  0  0  0  0
 27 31  1  0  0  0  0
 28 32  1  0  0  0  0
 31 32  1  0  0  0  0
 33 34  1  0  0  0  0
 33 35  2  0  0  0  0
 35 37  1  0  0  0  0
 36 38  1  0  0  0  0
 38 39  1  0  0  0  0
 39 41  1  0  0  0  0
 40 41  1  0  0  0  0
 40 42  1  1  0  0  0
 43 44  1  0  0  0  0
 44 45  1  0  0  0  0
 45 47  1  0  0  0  0
 46 47  1  0  0  0  0
 46 48  1  1  0  0  0
 49 50  1  0  0  0  0
 50 51  1  0  0  0  0
 51 53  1  0  0  0  0
 52 53  1  0  0  0  0
 52 54  1  1  0  0  0
M  END
> <Acceptable>
false

> <IC50>
0.0111

$$$$

Generated by Molecular Materials Informatics

 55 62  0  0  0  0  0  0  0  0999 V2000
   -0.1672    3.1912    0.0000 O   0  0  0  0  0  0  0  0  0  0  0  0
    1.3856   -2.4000    0.0000 O   0  0  0  0  0  0  0  0  0  0  0  0
    8.3138    4.8000    0.0000 O   0  0  0  0  0  0  0  0  0  0  0  0
   -3.5378   -4.1105    0.0000 O   0  0  0  0  0  0  0  0  0  0  0  0
    9.6995    2.4000    0.0000 O   0  0  0  0  0  0  0  0  0  0  0  0
   -1.5217   -6.1267    0.0000 O   0  0  0  0  0  0  0  0  0  0  0  0
   13.8564    4.8000    0.0000 O   0  0  0  0  0  0  0  0  0  0  0  0
   13.8564    1.6000    0.0000 O   0  0  0  0  0  0  0  0  0  0  0  0
   16.6277    1.6000    0.0000 O   0  0  0  0  0  0  0  0  0  0  0  0
   19.3990    4.8000    0.0000 O   0  0  0  0  0  0  0  0  0  0  0  0
   16.6277    6.4000    0.0000 O   0  0  0  0  0  0  0  0  0  0  0  0
   20.7846    2.4000    0.0000 O   0  0  0  0  0  0  0  0  0  0  0  0
   24.9415    4.8000    0.0000 O   0  0  0  0  0  0  0  0  0  0  0  0
   24.9415    1.6000    0.0000 O   0  0  0  0  0  0  0  0  0  0  0  0
    0.0000    1.6000    0.0000 C   0  0  0  0  0  0  0  0  0  0  0  0
    1.3856    2.4000    0.0000 C   0  0  0  0  0  0  0  0  0  0  0  0
    2.7713    1.6000    0.0000 C   0  0  0  0  0  0  0  0  0  0  0  0
    0.0000    0.0000    0.0000 C   0  0  0  0  0  0  0  0  0  0  0  0
    4.1569    2.4000    0.0000 C   0  0  0  0  0  0  0  0  0  0  0  0
    4.1569    4.0000    0.0000 C   0  0  0  0  0  0  0  0  0  0  0  0
    1.3856   -0.8000    0.0000 C   0  0  0  0  0  0  0  0  0  0  0  0
    2.7713    0.0000    0.0000 C   0  0  0  0  0  0  0  0  0  0  0  0
   -1.5217   -0.4944    0.0000 C   0  0  0  0  0  0  0  0  0  0  0  0
   -1.5217    2.0944    0.0000 C   0  0  0  0  0  0  0  0  0  0  0  0
    1.3856    4.0000    0.0000 C   0  0  0  0  0  0  0  0  0  0  0  0
    2.7713    4.8000    0.0000 C   0  0  0  0  0  0  0  0  0  0  0  0
   -2.4621    0.8000    0.0000 C   0  0  0  0  0  0  0  0  0  0  0  0
    5.5426    1.6000    0.0000 C   0  0  0  0  0  0  0  0  0  0  0  0
   -0.1672   -1.5912    0.0000 C   0  0  0  0  0  0  0  0  0  0  0  0
    5.5426    4.8000    0.0000 C   0  0  0  0  0  0  0  0  0  0  0  0
    4.1569    0.8000    0.0000 C   0  0  0  0  0  0  0  0  0  0  0  0
    6.9282    2.4000    0.0000 C   0  0  0  0  0  0  0  0  0  0  0  0
    6.9282    4.0000    0.0000 C   0  0  0  0  0  0  0  0  0  0  0  0
   -2.0161   -2.0161    0.0000 C   0  0  0  0  0  0  0  0  0  0  0  0
   -3.5378   -2.5105    0.0000 C   0  0  0  0  0  0  0  0  0  0  0  0
   -1.0757   -3.3105    0.0000 C   0  0  0  0  0  0  0  0  0  0  0  0
   -2.0161   -4.6050    0.0000 C   0  0  0  0  0  0  0  0  0  0  0  0
    9.6995    4.0000    0.0000 C   0  0  0  0  0  0  0  0  0  0  0  0
   11.0851    4.8000    0.0000 C   0  0  0  0  0  0  0  0  0  0  0  0
   12.4708    4.0000    0.0000 C   0  0  0  0  0  0  0  0  0  0  0  0
   11.0851    1.6000    0.0000 C   0  0  0  0  0  0  0  0  0  0  0  0
   12.4708    2.4000    0.0000 C   0  0  0  0  0  0  0  0  0  0  0  0
   11.0851    0.0000    0.0000 C   0  0  0  0  0  0  0  0  0  0  0  0
   15.2420    2.4000    0.0000 C   0  0  0  0  0  0  0  0  0  0  0  0
   15.2420    4.0000    0.0000 C   0  0  0  0  0  0  0  0  0  0  0  0
   16.6277    4.8000    0.0000 C   0  0  0  0  0  0  0  0  0  0  0  0
   18.0133    2.4000    0.0000 C   0  0  0  0  0  0  0  0  0  0  0  0
   18.0133    4.0000    0.0000 C   0  0  0  0  0  0  0  0  0  0  0  0
   19.3990    1.6000    0.0000 C   0  0  0  0  0  0  0  0  0  0  0  0
   20.7846    4.0000    0.0000 C   0  0  0  0  0  0  0  0  0  0  0  0
   22.1702    4.8000    0.0000 C   0  0  0  0  0  0  0  0  0  0  0  0
   23.5559    4.0000    0.0000 C   0  0  0  0  0  0  0  0  0  0  0  0
   22.1702    1.6000    0.0000 C   0  0  0  0  0  0  0  0  0  0  0  0
   23.5559    2.4000    0.0000 C   0  0  0  0  0  0  0  0  0  0  0  0
   22.1702    0.0000    0.0000 C   0  0  0  0  0  0  0  0  0  0  0  0
 15  1  1  1  0  0  0
 21  2  1  1  0  0  0
 33  3  1  1  0  0  0
 38  3  1  1  0  0  0
  4 35  1  0  0  0  0
  4 37  1  0  0  0  0
  5 38  1  0  0  0  0
  5 41  1  0  0  0  0
  6 37  2  0  0  0  0
 40  7  1  6  0  0  0
 42  8  1  6  0  0  0
 44  8  1  1  0  0  0
  9 44  1  0  0  0  0
  9 47  1  0  0  0  0
 48 10  1  6  0  0  0
 50 10  1  1  0  0  0
 46 11  1  6  0  0  0
 12 50  1  0  0  0  0
 12 53  1  0  0  0  0
 52 13  1  6  0  0  0
 54 14  1  6  0  0  0
 15 16  1  0  0  0  0
 15 18  1  0  0  0  0
 15 24  1  0  0  0  0
 16 17  1  0  0  0  0
 16 25  1  6  0  0  0
 17 19  1  0  0  0  0
 17 22  1  1  0  0  0
 18 21  1  0  0  0  0
 18 23  1  0  0  0  0
 18 29  1  1  0  0  0
 19 20  1  0  0  0  0
 19 28  1  0  0  0  0
 19 31  1  1  0  0  0
 20 26  1  6  0  0  0
 20 30  1  0  0  0  0
 21 22  1  0  0  0  0
 23 27  1  0  0  0  0
 23 34  1  1  0  0  0
 24 27  1  0  0  0  0
 25 26  1  0  0  0  0
 28 32  1  0  0  0  0
 30 33  1  0  0  0  0
 32 33  1  0  0  0  0
 34 35  1  0  0  0  0
 34 36  2  0  0  0  0
 36 37  1  0  0  0  0
 38 39  1  0  0  0  0
 39 40  1  0  0  0  0
 40 42  1  0  0  0  0
 41 42  1  0  0  0  0
 41 43  1  1  0  0  0
 44 45  1  0  0  0  0
 45 46  1  0  0  0  0
 46 48  1  0  0  0  0
 47 48  1  0  0  0  0
 47 49  1  1  0  0  0
 50 51  1  0  0  0  0
 51 52  1  0  0  0  0
 52 54  1  0  0  0  0
 53 54  1  0  0  0  0
 53 55  1  1  0  0  0
M  END
> <Acceptable>
false

> <IC50>
0.0539

$$$$

Generated by Molecular Materials Informatics

 21 24  0  0  0  0  0  0  0  0999 V2000
   -7.5541   -0.7380    0.0000 O   0  0  0  0  0  0  0  0  0  0  0  0
    4.8000    0.0000    0.0000 O   0  0  0  0  0  0  0  0  0  0  0  0
   -2.4000    1.3856    0.0000 C   0  0  0  0  0  0  0  0  0  0  0  0
   -1.6000    0.0000    0.0000 C   0  0  0  0  0  0  0  0  0  0  0  0
   -4.0000    1.3856    0.0000 C   0  0  0  0  0  0  0  0  0  0  0  0
   -4.8000    0.0000    0.0000 C   0  0  0  0  0  0  0  0  0  0  0  0
    0.0000    0.0000    0.0000 C   0  0  0  0  0  0  0  0  0  0  0  0
    0.8000    1.3856    0.0000 C   0  0  0  0  0  0  0  0  0  0  0  0
   -2.4000   -1.3856    0.0000 C   0  0  0  0  0  0  0  0  0  0  0  0
   -4.0000   -1.3856    0.0000 C   0  0  0  0  0  0  0  0  0  0  0  0
   -1.6000    2.7713    0.0000 C   0  0  0  0  0  0  0  0  0  0  0  0
   -5.0706    2.5747    0.0000 C   0  0  0  0  0  0  0  0  0  0  0  0
   -6.3650    0.3327    0.0000 C   0  0  0  0  0  0  0  0  0  0  0  0
    0.0000    2.7713    0.0000 C   0  0  0  0  0  0  0  0  0  0  0  0
   -6.5323    1.9239    0.0000 C   0  0  0  0  0  0  0  0  0  0  0  0
    0.8000   -1.3856    0.0000 C   0  0  0  0  0  0  0  0  0  0  0  0
   -5.7405   -1.2944    0.0000 C   0  0  0  0  0  0  0  0  0  0  0  0
   -0.8000   -1.3856    0.0000 C   0  0  0  0  0  0  0  0  0  0  0  0
    2.4000    1.3856    0.0000 C   0  0  0  0  0  0  0  0  0  0  0  0
    2.4000   -1.3856    0.0000 C   0  0  0  0  0  0  0  0  0  0  0  0
    3.2000    0.0000    0.0000 C   0  0  0  0  0  0  0  0  0  0  0  0
 13  1  1  1  0  0  0
  2 21  2  0  0  0  0
  3  4  1  0  0  0  0
  3  5  1  0  0  0  0
  3 11  1  6  0  0  0
  4  7  1  0  0  0  0
  4  9  1  1  0  0  0
  5  6  1  0  0  0  0
  5 12  1  1  0  0  0
  6 10  1  0  0  0  0
  6 13  1  0  0  0  0
  6 17  1  1  0  0  0
  7  8  1  0  0  0  0
  7 16  1  0  0  0  0
  7 18  1  1  0  0  0
  8 14  1  0  0  0  0
  8 19  1  1  0  0  0
  9 10  1  0  0  0  0
 11 14  1  0  0  0  0
 12 15  1  0  0  0  0
 13 15  1  0  0  0  0
 16 20  1  0  0  0  0
 19 21  1  0  0  0  0
 20 21  1  0  0  0  0
M  END
> <Acceptable>
false

> <IC50>
>1

$$$$

Generated by Molecular Materials Informatics

 29 31  0  0  0  0  0  0  0  0999 V2000
   -0.4716   -1.5289    0.0000 S   0  0  0  0  0  0  0  0  0  0  0  0
   -1.9610   -2.1135    0.0000 C   0  0  0  0  0  0  0  0  0  0  0  0
   -1.9610   -3.7135    0.0000 C   0  0  0  0  0  0  0  0  0  0  0  0
   -3.3466   -4.5135    0.0000 C   0  0  0  0  0  0  0  0  0  0  0  0
   -4.7323   -3.7135    0.0000 C   0  0  0  0  0  0  0  0  0  0  0  0
   -4.7323   -2.1135    0.0000 C   0  0  0  0  0  0  0  0  0  0  0  0
   -3.3466   -1.3135    0.0000 C   0  0  0  0  0  0  0  0  0  0  0  0
   -3.5851    0.2687    0.0000 N   0  0  0  0  0  0  0  0  0  0  0  0
   -5.1140    0.7403    0.0000 C   0  0  0  0  0  0  0  0  0  0  0  0
   -5.4701    2.3002    0.0000 C   0  0  0  0  0  0  0  0  0  0  0  0
   -6.9990    2.7718    0.0000 N   0  0  0  0  0  0  0  0  0  0  0  0
   -8.1719    1.6835    0.0000 C   0  0  0  0  0  0  0  0  0  0  0  0
   -7.3550    4.3317    0.0000 C   0  0  0  0  0  0  0  0  0  0  0  0
   -2.4968    1.4415    0.0000 C   0  0  0  0  0  0  0  0  0  0  0  0
   -3.0814    2.9309    0.0000 O   0  0  0  0  0  0  0  0  0  0  0  0
   -0.9013    1.3220    0.0000 C   0  0  0  0  0  0  0  0  0  0  0  0
   -0.1013    2.7076    0.0000 O   0  0  0  0  0  0  0  0  0  0  0  0
   -0.9013    4.0933    0.0000 C   0  0  0  0  0  0  0  0  0  0  0  0
   -2.5013    4.0933    0.0000 O   0  0  0  0  0  0  0  0  0  0  0  0
   -0.1013    5.4789    0.0000 C   0  0  0  0  0  0  0  0  0  0  0  0
    0.0000    0.0000    0.0000 C   0  0  0  0  0  0  0  0  0  0  0  0
    1.5821    0.2385    0.0000 C   0  0  0  0  0  0  0  0  0  0  0  0
    2.1667    1.7279    0.0000 C   0  0  0  0  0  0  0  0  0  0  0  0
    3.7488    1.9663    0.0000 C   0  0  0  0  0  0  0  0  0  0  0  0
    4.7464    0.7154    0.0000 C   0  0  0  0  0  0  0  0  0  0  0  0
    6.3285    0.9539    0.0000 O   0  0  0  0  0  0  0  0  0  0  0  0
    7.3261   -0.2971    0.0000 C   0  0  0  0  0  0  0  0  0  0  0  0
    4.1618   -0.7740    0.0000 C   0  0  0  0  0  0  0  0  0  0  0  0
    2.5797   -1.0125    0.0000 C   0  0  0  0  0  0  0  0  0  0  0  0
  1  2  1  0  0  0  0
  1 21  1  0  0  0  0
  2  3  1  0  0  0  0
  2  7  2  0  0  0  0
  3  4  2  0  0  0  0
  4  5  1  0  0  0  0
  5  6  2  0  0  0  0
  6  7  1  0  0  0  0
  7  8  1  0  0  0  0
  8  9  1  0  0  0  0
  8 14  1  0  0  0  0
  9 10  1  0  0  0  0
 10 11  1  0  0  0  0
 11 12  1  0  0  0  0
 11 13  1  0  0  0  0
 14 15  2  0  0  0  0
 14 16  1  0  0  0  0
 16 17  1  6  0  0  0
 16 21  1  0  0  0  0
 17 18  1  0  0  0  0
 18 19  2  0  0  0  0
 18 20  1  0  0  0  0
 21 22  1  6  0  0  0
 22 23  1  0  0  0  0
 22 29  2  0  0  0  0
 23 24  2  0  0  0  0
 24 25  1  0  0  0  0
 25 26  1  0  0  0  0
 25 28  2  0  0  0  0
 26 27  1  0  0  0  0
 28 29  1  0  0  0  0
M  END
> <Acceptable>
false

> <IC50>
17.3

$$$$

Generated by Molecular Materials Informatics

 36 39  0  0  0  0  0  0  0  0999 V2000
   -8.0000    2.7713    0.0000 O   0  0  0  0  0  0  0  0  0  0  0  0
   -7.2000    1.3856    0.0000 C   0  0  0  0  0  0  0  0  0  0  0  0
   -5.6000    1.3856    0.0000 C   0  0  0  0  0  0  0  0  0  0  0  0
   -4.8000    0.0000    0.0000 N   0  0  0  0  0  0  0  0  0  0  0  0
   -5.6000   -1.3856    0.0000 C   0  0  0  0  0  0  0  0  0  0  0  0
   -7.2000   -1.3856    0.0000 C   0  0  0  0  0  0  0  0  0  0  0  0
   -8.0000   -2.7713    0.0000 O   0  0  0  0  0  0  0  0  0  0  0  0
   -3.2000    0.0000    0.0000 C   0  0  0  0  0  0  0  0  0  0  0  0
   -2.4000   -1.3856    0.0000 N   0  0  0  0  0  0  0  0  0  0  0  0
   -0.8000   -1.3856    0.0000 C   0  0  0  0  0  0  0  0  0  0  0  0
    0.0000   -2.7713    0.0000 N   0  0  0  0  0  0  0  0  0  0  0  0
   -0.8000   -4.1569    0.0000 C   0  0  0  0  0  0  0  0  0  0  0  0
    0.0000   -5.5426    0.0000 C   0  0  0  0  0  0  0  0  0  0  0  0
    1.6000   -5.5426    0.0000 C   0  0  0  0  0  0  0  0  0  0  0  0
    2.4000   -4.1569    0.0000 C   0  0  0  0  0  0  0  0  0  0  0  0
    1.6000   -2.7713    0.0000 C   0  0  0  0  0  0  0  0  0  0  0  0
    0.0000    0.0000    0.0000 C   0  0  0  0  0  0  0  0  0  0  0  0
    1.6000    0.0000    0.0000 N   0  0  0  0  0  0  0  0  0  0  0  0
    2.4000    1.3856    0.0000 C   0  0  0  0  0  0  0  0  0  0  0  0
    1.6000    2.7713    0.0000 N   0  0  0  0  0  0  0  0  0  0  0  0
    0.0000    2.7713    0.0000 C   0  0  0  0  0  0  0  0  0  0  0  0
   -0.8000    4.1569    0.0000 N   0  0  0  0  0  0  0  0  0  0  0  0
    0.0000    5.5426    0.0000 C   0  0  0  0  0  0  0  0  0  0  0  0
   -0.8000    6.9282    0.0000 C   0  0  0  0  0  0  0  0  0  0  0  0
   -2.4000    6.9282    0.0000 C   0  0  0  0  0  0  0  0  0  0  0  0
   -3.2000    5.5426    0.0000 C   0  0  0  0  0  0  0  0  0  0  0  0
   -2.4000    4.1569    0.0000 C   0  0  0  0  0  0  0  0  0  0  0  0
   -0.8000    1.3856    0.0000 C   0  0  0  0  0  0  0  0  0  0  0  0
   -2.4000    1.3856    0.0000 N   0  0  0  0  0  0  0  0  0  0  0  0
    4.0000    1.3856    0.0000 N   0  0  0  0  0  0  0  0  0  0  0  0
    4.8000    0.0000    0.0000 C   0  0  0  0  0  0  0  0  0  0  0  0
    6.4000    0.0000    0.0000 C   0  0  0  0  0  0  0  0  0  0  0  0
    7.2000   -1.3856    0.0000 O   0  0  0  0  0  0  0  0  0  0  0  0
    4.8000    2.7713    0.0000 C   0  0  0  0  0  0  0  0  0  0  0  0
    6.4000    2.7713    0.0000 C   0  0  0  0  0  0  0  0  0  0  0  0
    7.2000    4.1569    0.0000 O   0  0  0  0  0  0  0  0  0  0  0  0
  1  2  1  0  0  0  0
  2  3  1  0  0  0  0
  3  4  1  0  0  0  0
  4  5  1  0  0  0  0
  4  8  1  0  0  0  0
  5  6  1  0  0  0  0
  6  7  1  0  0  0  0
  8  9  1  0  0  0  0
  8 29  2  0  0  0  0
  9 10  2  0  0  0  0
 10 11  1  0  0  0  0
 10 17  1  0  0  0  0
 11 12  1  0  0  0  0
 11 16  1  0  0  0  0
 12 13  1  0  0  0  0
 13 14  1  0  0  0  0
 14 15  1  0  0  0  0
 15 16  1  0  0  0  0
 17 18  1  0  0  0  0
 17 28  2  0  0  0  0
 18 19  2  0  0  0  0
 19 20  1  0  0  0  0
 19 30  1  0  0  0  0
 20 21  2  0  0  0  0
 21 22  1  0  0  0  0
 21 28  1  0  0  0  0
 22 23  1  0  0  0  0
 22 27  1  0  0  0  0
 23 24  1  0  0  0  0
 24 25  1  0  0  0  0
 25 26  1  0  0  0  0
 26 27  1  0  0  0  0
 28 29  1  0  0  0  0
 30 31  1  0  0  0  0
 30 34  1  0  0  0  0
 31 32  1  0  0  0  0
 32 33  1  0  0  0  0
 34 35  1  0  0  0  0
 35 36  1  0  0  0  0
M  END
> <Acceptable>
true

> <IC50>
N/A

$$$$

Generated by Molecular Materials Informatics

 25 26  0  0  0  0  0  0  0  0999 V2000
    0.0000    0.0000    0.0000 C   0  0  0  0  0  0  0  0  0  0  0  0
    0.8000   -1.3856    0.0000 C   0  0  0  0  0  0  0  0  0  0  0  0
   -0.8000    1.3856    0.0000 C   0  0  0  0  0  0  0  0  0  0  0  0
    1.3856    0.8000    0.0000 C   0  0  0  0  0  0  0  0  0  0  0  0
   -1.3856   -0.8000    0.0000 C   0  0  0  0  0  0  0  0  0  0  0  0
    0.0000   -2.7713    0.0000 C   0  0  0  0  0  0  0  0  0  0  0  0
    2.4000   -1.3856    0.0000 C   0  0  0  0  0  0  0  0  0  0  0  0
    0.0000    2.7713    0.0000 C   0  0  0  0  0  0  0  0  0  0  0  0
   -2.4000    1.3856    0.0000 N   0  0  0  0  0  0  0  0  0  0  0  0
    2.7713    0.0000    0.0000 C   0  0  0  0  0  0  0  0  0  0  0  0
   -2.7713    0.0000    0.0000 N   0  0  0  0  0  0  0  0  0  0  0  0
   -1.3856   -2.4000    0.0000 O   0  0  0  0  0  0  0  0  0  0  0  0
    0.8000   -4.1569    0.0000 C   0  0  0  0  0  0  0  0  0  0  0  0
    3.2000   -2.7713    0.0000 C   0  0  0  0  0  0  0  0  0  0  0  0
   -0.8000    4.1569    0.0000 C   0  0  0  0  0  0  0  0  0  0  0  0
   -3.2000    2.7713    0.0000 C   0  0  0  0  0  0  0  0  0  0  0  0
    4.1569    0.8000    0.0000 N   0  0  0  0  0  0  0  0  0  0  0  0
    2.4000   -4.1569    0.0000 C   0  0  0  0  0  0  0  0  0  0  0  0
   -2.4000    4.1569    0.0000 C   0  0  0  0  0  0  0  0  0  0  0  0
    4.1569    2.4000    0.0000 C   0  0  0  0  0  0  0  0  0  0  0  0
    5.5426    0.0000    0.0000 C   0  0  0  0  0  0  0  0  0  0  0  0
    2.7713    3.2000    0.0000 C   0  0  0  0  0  0  0  0  0  0  0  0
    5.5426    3.2000    0.0000 C   0  0  0  0  0  0  0  0  0  0  0  0
    5.5426   -1.6000    0.0000 C   0  0  0  0  0  0  0  0  0  0  0  0
    6.9282    0.8000    0.0000 C   0  0  0  0  0  0  0  0  0  0  0  0
  1  2  1  0  0  0  0
  1  3  1  0  0  0  0
  1  4  1  0  0  0  0
  1  5  1  1  0  0  0
  2  6  2  0  0  0  0
  2  7  1  0  0  0  0
  3  8  2  0  0  0  0
  3  9  1  0  0  0  0
  4 10  1  0  0  0  0
  5 11  1  0  0  0  0
  5 12  2  0  0  0  0
  6 13  1  0  0  0  0
  7 14  2  0  0  0  0
  8 15  1  0  0  0  0
  9 16  2  0  0  0  0
 10 17  1  0  0  0  0
 13 18  2  0  0  0  0
 14 18  1  0  0  0  0
 15 19  2  0  0  0  0
 16 19  1  0  0  0  0
 17 20  1  0  0  0  0
 17 21  1  0  0  0  0
 20 22  1  0  0  0  0
 20 23  1  0  0  0  0
 21 24  1  0  0  0  0
 21 25  1  0  0  0  0
M  END
> <Acceptable>
false

> <IC50>
7.23

$$$$

Generated by Molecular Materials Informatics

 16 15  0  0  0  0  0  0  0  0999 V2000
   -0.8000   -1.3856    0.0000 S   0  0  0  0  0  0  0  0  0  0  0  0
    0.0000    0.0000    0.0000 C   0  0  0  0  0  0  0  0  0  0  0  0
   -0.8000    1.3856    0.0000 S   0  0  0  0  0  0  0  0  0  0  0  0
   -2.4000    1.3856    0.0000 S   0  0  0  0  0  0  0  0  0  0  0  0
   -3.2000    2.7713    0.0000 C   0  0  0  0  0  0  0  0  0  0  0  0
   -2.4000    4.1569    0.0000 S   0  0  0  0  0  0  0  0  0  0  0  0
   -4.8000    2.7713    0.0000 N   0  0  0  0  0  0  0  0  0  0  0  0
   -5.6000    1.3856    0.0000 C   0  0  0  0  0  0  0  0  0  0  0  0
   -7.2000    1.3856    0.0000 C   0  0  0  0  0  0  0  0  0  0  0  0
   -5.6000    4.1569    0.0000 C   0  0  0  0  0  0  0  0  0  0  0  0
   -7.2000    4.1569    0.0000 C   0  0  0  0  0  0  0  0  0  0  0  0
    1.6000    0.0000    0.0000 N   0  0  0  0  0  0  0  0  0  0  0  0
    2.4000    1.3856    0.0000 C   0  0  0  0  0  0  0  0  0  0  0  0
    4.0000    1.3856    0.0000 C   0  0  0  0  0  0  0  0  0  0  0  0
    2.4000   -1.3856    0.0000 C   0  0  0  0  0  0  0  0  0  0  0  0
    4.0000   -1.3856    0.0000 C   0  0  0  0  0  0  0  0  0  0  0  0
  1  2  2  0  0  0  0
  2  3  1  0  0  0  0
  2 12  1  0  0  0  0
  3  4  1  0  0  0  0
  4  5  1  0  0  0  0
  5  6  2  0  0  0  0
  5  7  1  0  0  0  0
  7  8  1  0  0  0  0
  7 10  1  0  0  0  0
  8  9  1  0  0  0  0
 10 11  1  0  0  0  0
 12 13  1  0  0  0  0
 12 15  1  0  0  0  0
 13 14  1  0  0  0  0
 15 16  1  0  0  0  0
M  END
> <Acceptable>
true

> <IC50>
N/A

$$$$

Generated by Molecular Materials Informatics

 29 30  0  0  0  0  0  0  0  0999 V2000
   18.0133    4.0000    0.0000 S   0  0  0  0  0  0  0  0  0  0  0  0
   17.2133    2.6144    0.0000 O   0  0  0  0  0  0  0  0  0  0  0  0
   18.8133    5.3856    0.0000 O   0  0  0  0  0  0  0  0  0  0  0  0
   16.6277    4.8000    0.0000 N   0  0  0  0  0  0  0  0  0  0  0  0
   15.2420    4.0000    0.0000 C   0  0  0  0  0  0  0  0  0  0  0  0
   13.8564    4.8000    0.0000 C   0  0  0  0  0  0  0  0  0  0  0  0
   12.4708    4.0000    0.0000 C   0  0  0  0  0  0  0  0  0  0  0  0
   12.4708    2.4000    0.0000 C   0  0  0  0  0  0  0  0  0  0  0  0
   11.0851    1.6000    0.0000 O   0  0  0  0  0  0  0  0  0  0  0  0
    9.6995    2.4000    0.0000 C   0  0  0  0  0  0  0  0  0  0  0  0
    8.3138    1.6000    0.0000 C   0  0  0  0  0  0  0  0  0  0  0  0
    6.9282    2.4000    0.0000 N   0  0  0  0  0  0  0  0  0  0  0  0
    6.9282    4.0000    0.0000 C   0  0  0  0  0  0  0  0  0  0  0  0
    5.5426    1.6000    0.0000 C   0  0  0  0  0  0  0  0  0  0  0  0
    4.1569    2.4000    0.0000 C   0  0  0  0  0  0  0  0  0  0  0  0
    2.7713    1.6000    0.0000 C   0  0  0  0  0  0  0  0  0  0  0  0
    1.3856    2.4000    0.0000 C   0  0  0  0  0  0  0  0  0  0  0  0
    0.0000    1.6000    0.0000 C   0  0  0  0  0  0  0  0  0  0  0  0
    0.0000    0.0000    0.0000 C   0  0  0  0  0  0  0  0  0  0  0  0
   -1.3856   -0.8000    0.0000 N   0  0  0  0  0  0  0  0  0  0  0  0
   -2.7713    0.0000    0.0000 S   0  0  0  0  0  0  0  0  0  0  0  0
   -1.9713    1.3856    0.0000 O   0  0  0  0  0  0  0  0  0  0  0  0
   -3.5713   -1.3856    0.0000 O   0  0  0  0  0  0  0  0  0  0  0  0
   -4.1569    0.8000    0.0000 C   0  0  0  0  0  0  0  0  0  0  0  0
    1.3856   -0.8000    0.0000 C   0  0  0  0  0  0  0  0  0  0  0  0
    2.7713    0.0000    0.0000 C   0  0  0  0  0  0  0  0  0  0  0  0
   13.8564    1.6000    0.0000 C   0  0  0  0  0  0  0  0  0  0  0  0
   15.2420    2.4000    0.0000 C   0  0  0  0  0  0  0  0  0  0  0  0
   19.3990    3.2000    0.0000 C   0  0  0  0  0  0  0  0  0  0  0  0
  1  2  2  0  0  0  0
  1  3  2  0  0  0  0
  1  4  1  0  0  0  0
  1 29  1  0  0  0  0
  4  5  1  0  0  0  0
  5  6  1  0  0  0  0
  5 28  2  0  0  0  0
  6  7  2  0  0  0  0
  7  8  1  0  0  0  0
  8  9  1  0  0  0  0
  8 27  2  0  0  0  0
  9 10  1  0  0  0  0
 10 11  1  0  0  0  0
 11 12  1  0  0  0  0
 12 13  1  1  0  0  0
 12 14  1  0  0  0  0
 14 15  1  0  0  0  0
 15 16  1  0  0  0  0
 16 17  1  0  0  0  0
 16 26  2  0  0  0  0
 17 18  2  0  0  0  0
 18 19  1  0  0  0  0
 19 20  1  0  0  0  0
 19 25  2  0  0  0  0
 20 21  1  0  0  0  0
 21 22  2  0  0  0  0
 21 23  2  0  0  0  0
 21 24  1  0  0  0  0
 25 26  1  0  0  0  0
 27 28  1  0  0  0  0
M  END
> <Acceptable>
false

> <IC50>
0.0103

$$$$

Generated by Molecular Materials Informatics

 24 28  0  0  0  0  0  0  0  0999 V2000
   -4.0000    1.3856    0.0000 O   0  0  0  0  0  0  0  0  0  0  0  0
   -2.4000    1.3856    0.0000 C   0  0  0  0  0  0  0  0  0  0  0  0
   -1.6000    0.0000    0.0000 C   0  0  0  0  0  0  0  0  0  0  0  0
    0.0000    0.0000    0.0000 N   0  0  0  0  0  0  0  0  0  0  0  0
    0.8000    1.3856    0.0000 C   0  0  0  0  0  0  0  0  0  0  0  0
    2.4000    1.3856    0.0000 C   0  0  0  0  0  0  0  0  0  0  0  0
    3.2000    0.0000    0.0000 C   0  0  0  0  0  0  0  0  0  0  0  0
    4.8000    0.0000    0.0000 O   0  0  0  0  0  0  0  0  0  0  0  0
    5.6000   -1.3856    0.0000 C   0  0  0  0  0  0  0  0  0  0  0  0
    4.8000   -2.7713    0.0000 O   0  0  0  0  0  0  0  0  0  0  0  0
    7.2000   -1.3856    0.0000 C   0  0  0  0  0  0  0  0  0  0  0  0
    8.1405   -2.6801    0.0000 C   0  0  0  0  0  0  0  0  0  0  0  0
    9.6621   -2.1856    0.0000 N   0  0  0  0  0  0  0  0  0  0  0  0
    9.6621   -0.5856    0.0000 C   0  0  0  0  0  0  0  0  0  0  0  0
   10.8512    0.4850    0.0000 C   0  0  0  0  0  0  0  0  0  0  0  0
   10.5185    2.0500    0.0000 C   0  0  0  0  0  0  0  0  0  0  0  0
    8.9968    2.5444    0.0000 C   0  0  0  0  0  0  0  0  0  0  0  0
    7.8078    1.4738    0.0000 C   0  0  0  0  0  0  0  0  0  0  0  0
    8.1405   -0.0912    0.0000 C   0  0  0  0  0  0  0  0  0  0  0  0
    2.4000   -1.3856    0.0000 C   0  0  0  0  0  0  0  0  0  0  0  0
    0.8000   -1.3856    0.0000 C   0  0  0  0  0  0  0  0  0  0  0  0
   -1.5085    0.0528    0.0000 C   0  0  0  0  0  0  0  0  0  0  0  0
   -1.6000    2.7713    0.0000 C   0  0  0  0  0  0  0  0  0  0  0  0
    0.0000    2.7713    0.0000 C   0  0  0  0  0  0  0  0  0  0  0  0
  1  2  2  0  0  0  0
  2  3  1  0  0  0  0
  2 23  1  0  0  0  0
  4  3  1  6  0  0  0
  4  5  1  0  0  0  0
  4 21  1  0  0  0  0
  5  6  1  0  0  0  0
  5 24  1  6  0  0  0
  6  7  1  0  0  0  0
  7  8  1  1  0  0  0
  7 20  1  0  0  0  0
  8  9  1  0  0  0  0
  9 10  2  0  0  0  0
  9 11  1  0  0  0  0
 11 12  1  0  0  0  0
 11 19  2  0  0  0  0
 12 13  1  0  0  0  0
 13 14  2  0  0  0  0
 14 15  1  0  0  0  0
 14 19  1  0  0  0  0
 15 16  2  0  0  0  0
 16 17  1  0  0  0  0
 17 18  2  0  0  0  0
 18 19  1  0  0  0  0
 21 20  1  6  0  0  0
 21 22  1  0  0  0  0
 23 22  1  6  0  0  0
 23 24  1  0  0  0  0
M  END
> <Acceptable>
false

> <IC50>
5.95

$$$$

Generated by Molecular Materials Informatics

 30 34  0  0  0  0  0  0  0  0999 V2000
   -5.3460    3.4706    0.0000 Cl  0  0  0  0  0  0  0  0  0  0  0  0
   -3.9603    2.6706    0.0000 C   0  0  0  0  0  0  0  0  0  0  0  0
   -2.5747    3.4706    0.0000 C   0  0  0  0  0  0  0  0  0  0  0  0
   -1.1890    2.6706    0.0000 C   0  0  0  0  0  0  0  0  0  0  0  0
   -1.1890    1.0706    0.0000 C   0  0  0  0  0  0  0  0  0  0  0  0
    0.0000    0.0000    0.0000 N   0  3  0  0  0  0  0  0  0  0  0  0
   -0.6508   -1.4617    0.0000 C   0  0  0  0  0  0  0  0  0  0  0  0
    0.1492   -2.8473    0.0000 O   0  0  0  0  0  0  0  0  0  0  0  0
   -2.2420   -1.2944    0.0000 N   0  0  0  0  0  0  0  0  0  0  0  0
   -2.5747    0.2706    0.0000 C   0  0  0  0  0  0  0  0  0  0  0  0
   -3.9603    1.0706    0.0000 C   0  0  0  0  0  0  0  0  0  0  0  0
    1.5650    0.3327    0.0000 C   0  0  0  0  0  0  0  0  0  0  0  0
    2.0595    1.8544    0.0000 C   0  0  0  0  0  0  0  0  0  0  0  0
    3.6245    2.1870    0.0000 C   0  0  0  0  0  0  0  0  0  0  0  0
    4.6951    0.9980    0.0000 N   0  0  0  0  0  0  0  0  0  0  0  0
    4.2007   -0.5237    0.0000 C   0  0  0  0  0  0  0  0  0  0  0  0
    2.6356   -0.8564    0.0000 C   0  0  0  0  0  0  0  0  0  0  0  0
    6.2601    1.3306    0.0000 C   0  0  0  0  0  0  0  0  0  0  0  0
    7.3308    0.1416    0.0000 C   0  0  0  0  0  0  0  0  0  0  0  0
    8.8958    0.4743    0.0000 C   0  0  0  0  0  0  0  0  0  0  0  0
    9.9664   -0.7148    0.0000 N   0  3  0  0  0  0  0  0  0  0  0  0
   11.5576   -0.5475    0.0000 C   0  0  0  0  0  0  0  0  0  0  0  0
   12.4981    0.7469    0.0000 C   0  0  0  0  0  0  0  0  0  0  0  0
   14.0893    0.5797    0.0000 C   0  0  0  0  0  0  0  0  0  0  0  0
   14.7401   -0.8820    0.0000 C   0  0  0  0  0  0  0  0  0  0  0  0
   13.7997   -2.1764    0.0000 C   0  0  0  0  0  0  0  0  0  0  0  0
   12.2084   -2.0092    0.0000 C   0  0  0  0  0  0  0  0  0  0  0  0
   11.0194   -3.0798    0.0000 N   0  0  0  0  0  0  0  0  0  0  0  0
    9.6337   -2.2798    0.0000 C   0  0  0  0  0  0  0  0  0  0  0  0
    8.1721   -2.9306    0.0000 O   0  0  0  0  0  0  0  0  0  0  0  0
  1  2  1  0  0  0  0
  2  3  1  0  0  0  0
  2 11  2  0  0  0  0
  3  4  2  0  0  0  0
  4  5  1  0  0  0  0
  5  6  2  0  0  0  0
  5 10  1  0  0  0  0
  6  7  1  0  0  0  0
 12  6  1  6  0  0  0
  7  8  2  0  0  0  0
  7  9  1  0  0  0  0
  9 10  2  0  0  0  0
 10 11  1  0  0  0  0
 12 13  1  0  0  0  0
 12 17  1  0  0  0  0
 13 14  1  0  0  0  0
 14 15  1  0  0  0  0
 15 16  1  0  0  0  0
 15 18  1  1  0  0  0
 16 17  1  0  0  0  0
 18 19  1  0  0  0  0
 19 20  1  0  0  0  0
 20 21  1  0  0  0  0
 21 22  2  0  0  0  0
 21 29  1  0  0  0  0
 22 23  1  0  0  0  0
 22 27  1  0  0  0  0
 23 24  2  0  0  0  0
 24 25  1  0  0  0  0
 25 26  2  0  0  0  0
 26 27  1  0  0  0  0
 27 28  2  0  0  0  0
 28 29  1  0  0  0  0
 29 30  2  0  0  0  0
M  CHG  2   6   1  21   1
M  END
> <Acceptable>
false

> <IC50>
0.1621

$$$$

Generated by Molecular Materials Informatics

 28 31  0  0  0  0  0  0  0  0999 V2000
    0.7379    2.7541    0.0000 O   0  0  0  0  0  0  0  0  0  0  0  0
    1.0706    1.1890    0.0000 C   0  0  0  0  0  0  0  0  0  0  0  0
    0.0000    0.0000    0.0000 C   0  0  0  0  0  0  0  0  0  0  0  0
   -1.6000    0.0000    0.0000 C   0  0  0  0  0  0  0  0  0  0  0  0
   -2.4000   -1.3856    0.0000 C   0  0  0  0  0  0  0  0  0  0  0  0
   -4.0000   -1.3856    0.0000 O   0  0  0  0  0  0  0  0  0  0  0  0
   -4.8000    0.0000    0.0000 C   0  0  0  0  0  0  0  0  0  0  0  0
   -1.6000   -2.7713    0.0000 C   0  0  0  0  0  0  0  0  0  0  0  0
   -2.4000   -4.1569    0.0000 O   0  0  0  0  0  0  0  0  0  0  0  0
   -1.6000   -5.5426    0.0000 C   0  0  0  0  0  0  0  0  0  0  0  0
    0.0000   -2.7713    0.0000 C   0  0  0  0  0  0  0  0  0  0  0  0
    0.8000   -1.3856    0.0000 C   0  0  0  0  0  0  0  0  0  0  0  0
    2.3650   -1.0530    0.0000 C   0  0  0  0  0  0  0  0  0  0  0  0
    2.5323    0.5383    0.0000 C   0  0  0  0  0  0  0  0  0  0  0  0
    3.9179    1.3383    0.0000 C   0  0  0  0  0  0  0  0  0  0  0  0
    5.3036    0.5383    0.0000 C   0  0  0  0  0  0  0  0  0  0  0  0
    5.3036   -1.0617    0.0000 C   0  0  0  0  0  0  0  0  0  0  0  0
    6.6892   -1.8617    0.0000 C   0  0  0  0  0  0  0  0  0  0  0  0
    8.0748   -1.0617    0.0000 N   0  0  0  0  0  0  0  0  0  0  0  0
    8.0748    0.5383    0.0000 C   0  0  0  0  0  0  0  0  0  0  0  0
    6.6892    1.3383    0.0000 C   0  0  0  0  0  0  0  0  0  0  0  0
    9.4605   -1.8617    0.0000 C   0  0  0  0  0  0  0  0  0  0  0  0
   10.8461   -1.0617    0.0000 C   0  0  0  0  0  0  0  0  0  0  0  0
   12.2318   -1.8617    0.0000 C   0  0  0  0  0  0  0  0  0  0  0  0
   13.6174   -1.0617    0.0000 C   0  0  0  0  0  0  0  0  0  0  0  0
   13.6174    0.5383    0.0000 C   0  0  0  0  0  0  0  0  0  0  0  0
   12.2318    1.3383    0.0000 C   0  0  0  0  0  0  0  0  0  0  0  0
   10.8461    0.5383    0.0000 C   0  0  0  0  0  0  0  0  0  0  0  0
  1  2  2  0  0  0  0
  2  3  1  0  0  0  0
  2 14  1  0  0  0  0
  3  4  1  0  0  0  0
  3 12  2  0  0  0  0
  4  5  2  0  0  0  0
  5  6  1  0  0  0  0
  5  8  1  0  0  0  0
  6  7  1  0  0  0  0
  8  9  1  0  0  0  0
  8 11  2  0  0  0  0
  9 10  1  0  0  0  0
 11 12  1  0  0  0  0
 12 13  1  0  0  0  0
 13 14  1  0  0  0  0
 14 15  1  1  0  0  0
 16 15  1  1  0  0  0
 16 17  1  0  0  0  0
 16 21  1  0  0  0  0
 17 18  1  0  0  0  0
 18 19  1  0  0  0  0
 19 20  1  0  0  0  0
 19 22  1  6  0  0  0
 20 21  1  0  0  0  0
 22 23  1  0  0  0  0
 23 24  1  0  0  0  0
 23 28  2  0  0  0  0
 24 25  2  0  0  0  0
 25 26  1  0  0  0  0
 26 27  2  0  0  0  0
 27 28  1  0  0  0  0
M  END
> <Acceptable>
false

> <IC50>
1.9953

$$$$

Generated by Molecular Materials Informatics

 27 29  0  0  0  0  0  0  0  0999 V2000
    3.5541   -2.1236    0.0000 S   0  0  0  0  0  0  0  0  0  0  0  0
   10.6423    2.3141    0.0000 S   0  0  0  0  0  0  0  0  0  0  0  0
   -2.7868    0.9869    0.0000 O   0  0  0  0  0  0  0  0  0  0  0  0
    1.1397    4.7289    0.0000 O   0  0  0  0  0  0  0  0  0  0  0  0
    1.0897   -4.1417    0.0000 O   0  0  0  0  0  0  0  0  0  0  0  0
   -1.4420   -3.0146    0.0000 O   0  0  0  0  0  0  0  0  0  0  0  0
    9.3479    3.2546    0.0000 O   0  0  0  0  0  0  0  0  0  0  0  0
   11.9368    1.3737    0.0000 O   0  0  0  0  0  0  0  0  0  0  0  0
    0.0000    0.0000    0.0000 N   0  0  0  0  0  0  0  0  0  0  0  0
    7.6646   -1.6292    0.0000 N   0  0  0  0  0  0  0  0  0  0  0  0
    9.7019    1.0197    0.0000 N   0  0  0  0  0  0  0  0  0  0  0  0
   11.5828    3.6086    0.0000 N   0  0  0  0  0  0  0  0  0  0  0  0
    1.0706    1.1890    0.0000 C   0  0  0  0  0  0  0  0  0  0  0  0
   -0.1184    2.2596    0.0000 C   0  0  0  0  0  0  0  0  0  0  0  0
    2.5323    0.5383    0.0000 C   0  0  0  0  0  0  0  0  0  0  0  0
   -1.1890    1.0706    0.0000 C   0  0  0  0  0  0  0  0  0  0  0  0
    2.3650   -1.0530    0.0000 C   0  0  0  0  0  0  0  0  0  0  0  0
    0.8000   -1.3856    0.0000 C   0  0  0  0  0  0  0  0  0  0  0  0
   -0.2022    3.8574    0.0000 C   0  0  0  0  0  0  0  0  0  0  0  0
    3.9179    1.3383    0.0000 C   0  0  0  0  0  0  0  0  0  0  0  0
    5.0758   -1.6292    0.0000 C   0  0  0  0  0  0  0  0  0  0  0  0
    5.5702   -0.1075    0.0000 C   0  0  0  0  0  0  0  0  0  0  0  0
    7.1702   -0.1075    0.0000 C   0  0  0  0  0  0  0  0  0  0  0  0
    6.3702   -2.5696    0.0000 C   0  0  0  0  0  0  0  0  0  0  0  0
   -1.6278    4.5838    0.0000 C   0  0  0  0  0  0  0  0  0  0  0  0
    0.1492   -2.8473    0.0000 C   0  0  0  0  0  0  0  0  0  0  0  0
    8.1106    1.1870    0.0000 C   0  0  0  0  0  0  0  0  0  0  0  0
  1 17  1  0  0  0  0
 21  1  1  1  0  0  0
  2  7  2  0  0  0  0
  2  8  2  0  0  0  0
  2 11  1  0  0  0  0
  2 12  1  0  0  0  0
  3 16  2  0  0  0  0
  4 19  1  0  0  0  0
  5 26  1  0  0  0  0
  6 26  2  0  0  0  0
 13  9  1  1  0  0  0
  9 16  1  0  0  0  0
  9 18  1  0  0  0  0
 10 23  1  0  0  0  0
 10 24  1  0  0  0  0
 11 27  1  0  0  0  0
 13 14  1  0  0  0  0
 13 15  1  0  0  0  0
 14 16  1  6  0  0  0
 14 19  1  0  0  0  0
 15 17  1  0  0  0  0
 15 20  1  1  0  0  0
 17 18  2  0  0  0  0
 18 26  1  0  0  0  0
 19 25  1  1  0  0  0
 21 22  1  0  0  0  0
 21 24  1  0  0  0  0
 22 23  1  0  0  0  0
 23 27  1  1  0  0  0
M  END
> <Acceptable>
true

> <IC50>
N/A

$$$$

Generated by Molecular Materials Informatics

 33 37  0  0  0  0  0  0  0  0999 V2000
    8.3138    6.4000    0.0000 O   0  0  0  0  0  0  0  0  0  0  0  0
    8.3138    4.8000    0.0000 C   0  0  0  0  0  0  0  0  0  0  0  0
    6.9282    4.0000    0.0000 N   0  0  0  0  0  0  0  0  0  0  0  0
    6.9282    2.4000    0.0000 C   0  0  0  0  0  0  0  0  0  0  0  0
    5.5426    1.6000    0.0000 C   0  0  0  0  0  0  0  0  0  0  0  0
    4.1569    2.4000    0.0000 N   0  0  0  0  0  0  0  0  0  0  0  0
    4.1569    4.0000    0.0000 C   0  0  0  0  0  0  0  0  0  0  0  0
    5.5426    4.8000    0.0000 C   0  0  0  0  0  0  0  0  0  0  0  0
    2.7713    1.6000    0.0000 C   0  0  0  0  0  0  0  0  0  0  0  0
    2.7713    0.0000    0.0000 N   0  0  0  0  0  0  0  0  0  0  0  0
    1.3856   -0.8000    0.0000 C   0  0  0  0  0  0  0  0  0  0  0  0
    1.3856   -2.4000    0.0000 N   0  0  0  0  0  0  0  0  0  0  0  0
    0.0000    0.0000    0.0000 C   0  0  0  0  0  0  0  0  0  0  0  0
   -1.3856   -0.8000    0.0000 C   0  0  0  0  0  0  0  0  0  0  0  0
   -2.7713    0.0000    0.0000 C   0  0  0  0  0  0  0  0  0  0  0  0
   -4.1569   -0.8000    0.0000 O   0  0  0  0  0  0  0  0  0  0  0  0
   -4.1569   -2.4000    0.0000 C   0  0  0  0  0  0  0  0  0  0  0  0
   -2.7713    1.6000    0.0000 C   0  0  0  0  0  0  0  0  0  0  0  0
   -4.1569    2.4000    0.0000 O   0  0  0  0  0  0  0  0  0  0  0  0
   -4.1569    4.0000    0.0000 C   0  0  0  0  0  0  0  0  0  0  0  0
   -1.3856    2.4000    0.0000 C   0  0  0  0  0  0  0  0  0  0  0  0
    0.0000    1.6000    0.0000 C   0  0  0  0  0  0  0  0  0  0  0  0
    1.3856    2.4000    0.0000 N   0  0  0  0  0  0  0  0  0  0  0  0
    9.6995    4.0000    0.0000 C   0  0  0  0  0  0  0  0  0  0  0  0
   11.0851    4.8000    0.0000 O   0  0  0  0  0  0  0  0  0  0  0  0
   12.4708    4.0000    0.0000 C   0  0  0  0  0  0  0  0  0  0  0  0
   13.8564    4.8000    0.0000 C   0  0  0  0  0  0  0  0  0  0  0  0
   15.2420    4.0000    0.0000 C   0  0  0  0  0  0  0  0  0  0  0  0
   15.2420    2.4000    0.0000 C   0  0  0  0  0  0  0  0  0  0  0  0
   13.8564    1.6000    0.0000 C   0  0  0  0  0  0  0  0  0  0  0  0
   12.4708    2.4000    0.0000 C   0  0  0  0  0  0  0  0  0  0  0  0
   11.0851    1.6000    0.0000 O   0  0  0  0  0  0  0  0  0  0  0  0
    9.6995    2.4000    0.0000 C   0  0  0  0  0  0  0  0  0  0  0  0
  1  2  2  0  0  0  0
  2  3  1  0  0  0  0
 24  2  1  6  0  0  0
  3  4  1  0  0  0  0
  3  8  1  0  0  0  0
  4  5  1  0  0  0  0
  5  6  1  0  0  0  0
  6  7  1  0  0  0  0
  6  9  1  0  0  0  0
  7  8  1  0  0  0  0
  9 10  1  0  0  0  0
  9 23  2  0  0  0  0
 10 11  2  0  0  0  0
 11 12  1  0  0  0  0
 11 13  1  0  0  0  0
 13 14  1  0  0  0  0
 13 22  2  0  0  0  0
 14 15  2  0  0  0  0
 15 16  1  0  0  0  0
 15 18  1  0  0  0  0
 16 17  1  0  0  0  0
 18 19  1  0  0  0  0
 18 21  2  0  0  0  0
 19 20  1  0  0  0  0
 21 22  1  0  0  0  0
 22 23  1  0  0  0  0
 24 25  1  0  0  0  0
 24 33  1  0  0  0  0
 25 26  1  0  0  0  0
 26 27  1  0  0  0  0
 26 31  2  0  0  0  0
 27 28  2  0  0  0  0
 28 29  1  0  0  0  0
 29 30  2  0  0  0  0
 30 31  1  0  0  0  0
 31 32  1  0  0  0  0
 32 33  1  0  0  0  0
M  END
> <Acceptable>
false

> <IC50>
0.585

$$$$

Generated by Molecular Materials Informatics

 21 23  0  0  0  0  0  0  0  0999 V2000
   -2.0252    2.9705    0.0000 O   0  0  0  0  0  0  0  0  0  0  0  0
   -3.1135    1.7976    0.0000 C   0  0  0  0  0  0  0  0  0  0  0  0
   -2.8750    0.2155    0.0000 C   0  0  0  0  0  0  0  0  0  0  0  0
   -4.2607   -0.5845    0.0000 C   0  0  0  0  0  0  0  0  0  0  0  0
   -4.2607   -2.1845    0.0000 C   0  0  0  0  0  0  0  0  0  0  0  0
   -2.8750   -2.9845    0.0000 C   0  0  0  0  0  0  0  0  0  0  0  0
   -1.4894   -2.1845    0.0000 C   0  0  0  0  0  0  0  0  0  0  0  0
   -1.4894   -0.5845    0.0000 C   0  0  0  0  0  0  0  0  0  0  0  0
    0.0000    0.0000    0.0000 C   0  0  0  0  0  0  0  0  0  0  0  0
    1.1729   -1.0883    0.0000 C   0  0  0  0  0  0  0  0  0  0  0  0
    2.7018   -0.6167    0.0000 C   0  0  0  0  0  0  0  0  0  0  0  0
    3.8747   -1.7049    0.0000 C   0  0  0  0  0  0  0  0  0  0  0  0
    5.4036   -1.2333    0.0000 N   0  0  0  0  0  0  0  0  0  0  0  0
    5.7596    0.3266    0.0000 C   0  0  0  0  0  0  0  0  0  0  0  0
    6.5765   -2.3216    0.0000 C   0  0  0  0  0  0  0  0  0  0  0  0
    0.4716    1.5289    0.0000 C   0  0  0  0  0  0  0  0  0  0  0  0
    2.0671    1.6485    0.0000 C   0  0  0  0  0  0  0  0  0  0  0  0
    2.7614    3.0900    0.0000 C   0  0  0  0  0  0  0  0  0  0  0  0
    1.8600    4.4120    0.0000 C   0  0  0  0  0  0  0  0  0  0  0  0
    0.2645    4.2924    0.0000 C   0  0  0  0  0  0  0  0  0  0  0  0
   -0.4297    2.8509    0.0000 C   0  0  0  0  0  0  0  0  0  0  0  0
  1  2  1  0  0  0  0
  1 21  1  0  0  0  0
  2  3  1  0  0  0  0
  3  4  1  0  0  0  0
  3  8  2  0  0  0  0
  4  5  2  0  0  0  0
  5  6  1  0  0  0  0
  6  7  2  0  0  0  0
  7  8  1  0  0  0  0
  8  9  1  0  0  0  0
  9 10  2  0  0  0  0
  9 16  1  0  0  0  0
 10 11  1  0  0  0  0
 11 12  1  0  0  0  0
 12 13  1  0  0  0  0
 13 14  1  0  0  0  0
 13 15  1  0  0  0  0
 16 17  1  0  0  0  0
 16 21  2  0  0  0  0
 17 18  2  0  0  0  0
 18 19  1  0  0  0  0
 19 20  2  0  0  0  0
 20 21  1  0  0  0  0
M  END
> <Acceptable>
false

> <IC50>
6.4999

$$$$

Generated by Molecular Materials Informatics

 39 43  0  0  0  0  0  0  0  0999 V2000
   -4.1569    2.4000    0.0000 O   0  0  0  0  0  0  0  0  0  0  0  0
   -5.5426    4.8000    0.0000 O   0  0  0  0  0  0  0  0  0  0  0  0
   -6.0898   -3.1035    0.0000 O   0  0  0  0  0  0  0  0  0  0  0  0
   -9.6995    5.6000    0.0000 O   0  0  0  0  0  0  0  0  0  0  0  0
   -1.3856    2.4000    0.0000 O   0  0  0  0  0  0  0  0  0  0  0  0
   -1.3856   -4.0000    0.0000 O   0  0  0  0  0  0  0  0  0  0  0  0
   -7.6655    0.1813    0.0000 O   0  0  0  0  0  0  0  0  0  0  0  0
   -9.7224   -2.2700    0.0000 O   0  0  0  0  0  0  0  0  0  0  0  0
    1.3856    2.4000    0.0000 O   0  0  0  0  0  0  0  0  0  0  0  0
    1.3856   -4.0000    0.0000 O   0  0  0  0  0  0  0  0  0  0  0  0
    4.1569    2.4000    0.0000 O   0  0  0  0  0  0  0  0  0  0  0  0
   -9.6995    2.4000    0.0000 N   0  0  0  0  0  0  0  0  0  0  0  0
   -4.1569    0.8000    0.0000 C   0  0  0  0  0  0  0  0  0  0  0  0
   -5.5426   -1.6000    0.0000 C   0  0  0  0  0  0  0  0  0  0  0  0
   -5.5426    0.0000    0.0000 C   0  0  0  0  0  0  0  0  0  0  0  0
   -4.1569   -2.4000    0.0000 C   0  0  0  0  0  0  0  0  0  0  0  0
   -2.7713    0.0000    0.0000 C   0  0  0  0  0  0  0  0  0  0  0  0
   -2.7713   -1.6000    0.0000 C   0  0  0  0  0  0  0  0  0  0  0  0
   -5.5426    3.2000    0.0000 C   0  0  0  0  0  0  0  0  0  0  0  0
   -6.9282    2.4000    0.0000 C   0  0  0  0  0  0  0  0  0  0  0  0
   -8.3138    3.2000    0.0000 C   0  0  0  0  0  0  0  0  0  0  0  0
   -8.3138    4.8000    0.0000 C   0  0  0  0  0  0  0  0  0  0  0  0
   -6.9282    5.6000    0.0000 C   0  0  0  0  0  0  0  0  0  0  0  0
   -1.3856    0.8000    0.0000 C   0  0  0  0  0  0  0  0  0  0  0  0
   -7.1183   -1.3222    0.0000 C   0  0  0  0  0  0  0  0  0  0  0  0
   -1.3856   -2.4000    0.0000 C   0  0  0  0  0  0  0  0  0  0  0  0
    0.0000    0.0000    0.0000 C   0  0  0  0  0  0  0  0  0  0  0  0
    0.0000   -1.6000    0.0000 C   0  0  0  0  0  0  0  0  0  0  0  0
   -6.9282    7.2000    0.0000 C   0  0  0  0  0  0  0  0  0  0  0  0
   -8.1467   -2.5478    0.0000 C   0  0  0  0  0  0  0  0  0  0  0  0
    1.3856    0.8000    0.0000 C   0  0  0  0  0  0  0  0  0  0  0  0
    1.3856   -2.4000    0.0000 C   0  0  0  0  0  0  0  0  0  0  0  0
    2.7713    0.0000    0.0000 C   0  0  0  0  0  0  0  0  0  0  0  0
    2.7713   -1.6000    0.0000 C   0  0  0  0  0  0  0  0  0  0  0  0
    4.1569    0.8000    0.0000 C   0  0  0  0  0  0  0  0  0  0  0  0
    4.1569   -2.4000    0.0000 C   0  0  0  0  0  0  0  0  0  0  0  0
    5.5426    0.0000    0.0000 C   0  0  0  0  0  0  0  0  0  0  0  0
    5.5426   -1.6000    0.0000 C   0  0  0  0  0  0  0  0  0  0  0  0
    5.5426    3.2000    0.0000 C   0  0  0  0  0  0  0  0  0  0  0  0
 13  1  1  6  0  0  0
 19  1  1  1  0  0  0
  2 19  1  0  0  0  0
  2 23  1  0  0  0  0
 14  3  1  6  0  0  0
 22  4  1  6  0  0  0
  5 24  1  0  0  0  0
  6 26  1  0  0  0  0
  7 25  2  0  0  0  0
  8 30  1  0  0  0  0
  9 31  2  0  0  0  0
 10 32  2  0  0  0  0
 11 35  1  0  0  0  0
 11 39  1  0  0  0  0
 21 12  1  6  0  0  0
 13 15  1  0  0  0  0
 13 17  1  0  0  0  0
 14 15  1  0  0  0  0
 14 16  1  0  0  0  0
 14 25  1  0  0  0  0
 16 18  1  0  0  0  0
 17 18  1  0  0  0  0
 17 24  2  0  0  0  0
 18 26  2  0  0  0  0
 19 20  1  0  0  0  0
 20 21  1  0  0  0  0
 21 22  1  0  0  0  0
 22 23  1  0  0  0  0
 23 29  1  6  0  0  0
 24 27  1  0  0  0  0
 25 30  1  0  0  0  0
 26 28  1  0  0  0  0
 27 28  2  0  0  0  0
 27 31  1  0  0  0  0
 28 32  1  0  0  0  0
 31 33  1  0  0  0  0
 32 34  1  0  0  0  0
 33 34  2  0  0  0  0
 33 35  1  0  0  0  0
 34 36  1  0  0  0  0
 35 37  2  0  0  0  0
 36 38  2  0  0  0  0
 37 38  1  0  0  0  0
M  END
> <Acceptable>
true

> <IC50>
>30

$$$$

Generated by Molecular Materials Informatics

 20 21  0  0  0  0  0  0  0  0999 V2000
   -0.8000    1.3856    0.0000 O   0  0  0  0  0  0  0  0  0  0  0  0
   -2.4000    1.3856    0.0000 C   0  0  0  0  0  0  0  0  0  0  0  0
   -3.2000    2.7713    0.0000 C   0  0  0  0  0  0  0  0  0  0  0  0
   -4.8000    2.7713    0.0000 N   0  0  0  0  0  0  0  0  0  0  0  0
   -5.6000    1.3856    0.0000 C   0  0  0  0  0  0  0  0  0  0  0  0
   -5.6000    4.1569    0.0000 C   0  0  0  0  0  0  0  0  0  0  0  0
    0.0000    0.0000    0.0000 C   0  0  0  0  0  0  0  0  0  0  0  0
    0.8000   -1.3856    0.0000 C   0  0  0  0  0  0  0  0  0  0  0  0
   -1.3856   -0.8000    0.0000 C   0  0  0  0  0  0  0  0  0  0  0  0
   -2.7713    0.0000    0.0000 N   0  0  0  0  0  0  0  0  0  0  0  0
   -4.1569   -0.8000    0.0000 C   0  0  0  0  0  0  0  0  0  0  0  0
   -4.1569   -2.4000    0.0000 C   0  0  0  0  0  0  0  0  0  0  0  0
   -2.7713   -3.2000    0.0000 C   0  0  0  0  0  0  0  0  0  0  0  0
   -1.3856   -2.4000    0.0000 C   0  0  0  0  0  0  0  0  0  0  0  0
    1.3856    0.8000    0.0000 C   0  0  0  0  0  0  0  0  0  0  0  0
    2.7713    0.0000    0.0000 C   0  0  0  0  0  0  0  0  0  0  0  0
    4.1569    0.8000    0.0000 C   0  0  0  0  0  0  0  0  0  0  0  0
    4.1569    2.4000    0.0000 C   0  0  0  0  0  0  0  0  0  0  0  0
    2.7713    3.2000    0.0000 C   0  0  0  0  0  0  0  0  0  0  0  0
    1.3856    2.4000    0.0000 C   0  0  0  0  0  0  0  0  0  0  0  0
  1  2  1  0  0  0  0
  1  7  1  0  0  0  0
  2  3  1  0  0  0  0
  3  4  1  0  0  0  0
  4  5  1  0  0  0  0
  4  6  1  0  0  0  0
  7  8  1  6  0  0  0
  7  9  1  0  0  0  0
  7 15  1  0  0  0  0
  9 10  1  0  0  0  0
  9 14  2  0  0  0  0
 10 11  2  0  0  0  0
 11 12  1  0  0  0  0
 12 13  2  0  0  0  0
 13 14  1  0  0  0  0
 15 16  1  0  0  0  0
 15 20  2  0  0  0  0
 16 17  2  0  0  0  0
 17 18  1  0  0  0  0
 18 19  2  0  0  0  0
 19 20  1  0  0  0  0
M  END
> <Acceptable>
true

> <IC50>
N/A

$$$$

Generated by Molecular Materials Informatics

 23 25  0  0  0  0  0  0  0  0999 V2000
    0.0000    2.7713    0.0000 O   0  0  0  0  0  0  0  0  0  0  0  0
    0.8000    1.3856    0.0000 C   0  0  0  0  0  0  0  0  0  0  0  0
    2.4000    1.3856    0.0000 C   0  0  0  0  0  0  0  0  0  0  0  0
    3.2000    0.0000    0.0000 C   0  0  0  0  0  0  0  0  0  0  0  0
    2.4000   -1.3856    0.0000 C   0  0  0  0  0  0  0  0  0  0  0  0
    0.8000   -1.3856    0.0000 C   0  0  0  0  0  0  0  0  0  0  0  0
    0.0000   -2.7713    0.0000 O   0  0  0  0  0  0  0  0  0  0  0  0
   -1.6000   -2.7713    0.0000 C   0  0  0  0  0  0  0  0  0  0  0  0
   -1.3222   -4.3470    0.0000 C   0  0  0  0  0  0  0  0  0  0  0  0
   -3.1035   -3.3185    0.0000 C   0  0  0  0  0  0  0  0  0  0  0  0
   -2.4000   -1.3856    0.0000 C   0  0  0  0  0  0  0  0  0  0  0  0
   -4.0000   -1.3856    0.0000 C   0  0  0  0  0  0  0  0  0  0  0  0
   -4.8000    0.0000    0.0000 C   0  0  0  0  0  0  0  0  0  0  0  0
   -4.0000    1.3856    0.0000 C   0  0  0  0  0  0  0  0  0  0  0  0
   -4.8000    2.7713    0.0000 C   0  0  0  0  0  0  0  0  0  0  0  0
   -2.4000    1.3856    0.0000 C   0  0  0  0  0  0  0  0  0  0  0  0
   -1.6000    0.0000    0.0000 C   0  0  0  0  0  0  0  0  0  0  0  0
    0.0000    0.0000    0.0000 C   0  0  0  0  0  0  0  0  0  0  0  0
    4.8000    0.0000    0.0000 C   0  0  0  0  0  0  0  0  0  0  0  0
    5.6000    1.3856    0.0000 C   0  0  0  0  0  0  0  0  0  0  0  0
    7.2000    1.3856    0.0000 C   0  0  0  0  0  0  0  0  0  0  0  0
    8.0000    2.7713    0.0000 C   0  0  0  0  0  0  0  0  0  0  0  0
    9.6000    2.7713    0.0000 C   0  0  0  0  0  0  0  0  0  0  0  0
  1  2  1  0  0  0  0
  2  3  1  0  0  0  0
  2 18  2  0  0  0  0
  3  4  2  0  0  0  0
  4  5  1  0  0  0  0
  4 19  1  0  0  0  0
  5  6  2  0  0  0  0
  6  7  1  0  0  0  0
  6 18  1  0  0  0  0
  7  8  1  0  0  0  0
  8  9  1  0  0  0  0
  8 10  1  0  0  0  0
  8 11  1  0  0  0  0
 11 12  1  6  0  0  0
 11 17  1  0  0  0  0
 12 13  1  0  0  0  0
 13 14  1  0  0  0  0
 14 15  1  0  0  0  0
 14 16  2  0  0  0  0
 17 16  1  6  0  0  0
 17 18  1  0  0  0  0
 19 20  1  0  0  0  0
 20 21  1  0  0  0  0
 21 22  1  0  0  0  0
 22 23  1  0  0  0  0
M  END
> <Acceptable>
true

> <IC50>
N/A

$$$$

Generated by Molecular Materials Informatics

 39 41  0  0  0  0  0  0  0  0999 V2000
   -1.5650   -0.3327    0.0000 C   0  0  0  0  0  0  0  0  0  0  0  0
    0.0000    0.0000    0.0000 C   0  0  0  0  0  0  0  0  0  0  0  0
   -2.3650    1.0530    0.0000 C   0  0  0  0  0  0  0  0  0  0  0  0
   -2.3650   -1.7183    0.0000 C   0  0  0  0  0  0  0  0  0  0  0  0
    0.1672    1.5912    0.0000 C   0  0  0  0  0  0  0  0  0  0  0  0
    1.1890   -1.0706    0.0000 C   0  0  0  0  0  0  0  0  0  0  0  0
   -1.2944    2.2420    0.0000 O   0  0  0  0  0  0  0  0  0  0  0  0
   -3.9650    1.0530    0.0000 C   0  0  0  0  0  0  0  0  0  0  0  0
   -3.9650   -1.7183    0.0000 C   0  0  0  0  0  0  0  0  0  0  0  0
    1.5529    2.3912    0.0000 C   0  0  0  0  0  0  0  0  0  0  0  0
    2.7107   -0.5762    0.0000 C   0  0  0  0  0  0  0  0  0  0  0  0
    0.8564   -2.6356    0.0000 O   0  0  0  0  0  0  0  0  0  0  0  0
   -4.7650   -0.3327    0.0000 C   0  0  0  0  0  0  0  0  0  0  0  0
   -4.7650   -3.1039    0.0000 N   0  0  0  0  0  0  0  0  0  0  0  0
    1.5529    3.9912    0.0000 C   0  0  0  0  0  0  0  0  0  0  0  0
    3.0434    0.9889    0.0000 C   0  0  0  0  0  0  0  0  0  0  0  0
    3.8998   -1.6468    0.0000 C   0  0  0  0  0  0  0  0  0  0  0  0
   -6.3650   -3.1039    0.0000 S   0  0  0  0  0  0  0  0  0  0  0  0
    2.9385    4.7912    0.0000 C   0  0  0  0  0  0  0  0  0  0  0  0
    4.5651    1.4833    0.0000 C   0  0  0  0  0  0  0  0  0  0  0  0
    5.4214   -1.1524    0.0000 C   0  0  0  0  0  0  0  0  0  0  0  0
   -6.3650   -1.5039    0.0000 O   0  0  0  0  0  0  0  0  0  0  0  0
   -6.3650   -4.7039    0.0000 O   0  0  0  0  0  0  0  0  0  0  0  0
   -7.9650   -3.1039    0.0000 C   0  0  0  0  0  0  0  0  0  0  0  0
    2.9385    6.3912    0.0000 C   0  0  0  0  0  0  0  0  0  0  0  0
    5.7541    0.4127    0.0000 C   0  0  0  0  0  0  0  0  0  0  0  0
    7.2758    0.9071    0.0000 O   0  0  0  0  0  0  0  0  0  0  0  0
    8.4648   -0.1635    0.0000 C   0  0  0  0  0  0  0  0  0  0  0  0
    9.9865    0.3309    0.0000 C   0  0  0  0  0  0  0  0  0  0  0  0
   11.1755   -0.7397    0.0000 C   0  0  0  0  0  0  0  0  0  0  0  0
   12.6972   -0.2453    0.0000 N   0  0  0  0  0  0  0  0  0  0  0  0
   13.0299    1.3198    0.0000 C   0  0  0  0  0  0  0  0  0  0  0  0
   13.8863   -1.3159    0.0000 C   0  0  0  0  0  0  0  0  0  0  0  0
   14.5516    1.8142    0.0000 C   0  0  0  0  0  0  0  0  0  0  0  0
   15.4080   -0.8214    0.0000 C   0  0  0  0  0  0  0  0  0  0  0  0
   14.8842    3.3792    0.0000 C   0  0  0  0  0  0  0  0  0  0  0  0
   16.5970   -1.8921    0.0000 C   0  0  0  0  0  0  0  0  0  0  0  0
   16.4059    3.8737    0.0000 C   0  0  0  0  0  0  0  0  0  0  0  0
   18.1187   -1.3976    0.0000 C   0  0  0  0  0  0  0  0  0  0  0  0
  1  2  1  0  0  0  0
  1  3  2  0  0  0  0
  1  4  1  0  0  0  0
  2  5  2  0  0  0  0
  2  6  1  0  0  0  0
  3  7  1  0  0  0  0
  3  8  1  0  0  0  0
  4  9  2  0  0  0  0
  5  7  1  0  0  0  0
  5 10  1  0  0  0  0
  6 11  1  0  0  0  0
  6 12  2  0  0  0  0
  8 13  2  0  0  0  0
  9 13  1  0  0  0  0
  9 14  1  0  0  0  0
 10 15  1  0  0  0  0
 11 16  2  0  0  0  0
 11 17  1  0  0  0  0
 14 18  1  0  0  0  0
 15 19  1  0  0  0  0
 16 20  1  0  0  0  0
 17 21  2  0  0  0  0
 18 22  2  0  0  0  0
 18 23  2  0  0  0  0
 18 24  1  0  0  0  0
 19 25  1  0  0  0  0
 20 26  2  0  0  0  0
 21 26  1  0  0  0  0
 26 27  1  0  0  0  0
 27 28  1  0  0  0  0
 28 29  1  0  0  0  0
 29 30  1  0  0  0  0
 30 31  1  0  0  0  0
 31 32  1  0  0  0  0
 31 33  1  0  0  0  0
 32 34  1  0  0  0  0
 33 35  1  0  0  0  0
 34 36  1  0  0  0  0
 35 37  1  0  0  0  0
 36 38  1  0  0  0  0
 37 39  1  0  0  0  0
M  END
> <Acceptable>
false

> <IC50>
1

$$$$

Generated by Molecular Materials Informatics

 28 31  0  0  0  0  0  0  0  0999 V2000
  -16.2265   -0.6159    0.0000 F   0  0  0  0  0  0  0  0  0  0  0  0
  -14.6615   -0.2832    0.0000 C   0  0  0  0  0  0  0  0  0  0  0  0
  -13.5909   -1.4722    0.0000 C   0  0  0  0  0  0  0  0  0  0  0  0
  -12.0259   -1.1396    0.0000 C   0  0  0  0  0  0  0  0  0  0  0  0
  -11.5314    0.3821    0.0000 C   0  0  0  0  0  0  0  0  0  0  0  0
  -12.6020    1.5711    0.0000 C   0  0  0  0  0  0  0  0  0  0  0  0
  -14.1671    1.2385    0.0000 C   0  0  0  0  0  0  0  0  0  0  0  0
   -9.9664    0.7148    0.0000 C   0  0  0  0  0  0  0  0  0  0  0  0
   -9.4720    2.2365    0.0000 O   0  0  0  0  0  0  0  0  0  0  0  0
   -8.8958   -0.4743    0.0000 C   0  0  0  0  0  0  0  0  0  0  0  0
   -7.3308   -0.1416    0.0000 C   0  0  0  0  0  0  0  0  0  0  0  0
   -6.2601   -1.3306    0.0000 C   0  0  0  0  0  0  0  0  0  0  0  0
   -4.6951   -0.9980    0.0000 N   0  0  0  0  0  0  0  0  0  0  0  0
   -3.6245   -2.1870    0.0000 C   0  0  0  0  0  0  0  0  0  0  0  0
   -2.0595   -1.8544    0.0000 C   0  0  0  0  0  0  0  0  0  0  0  0
   -1.5650   -0.3327    0.0000 C   0  0  0  0  0  0  0  0  0  0  0  0
    0.0000    0.0000    0.0000 N   0  3  0  0  0  0  0  0  0  0  0  0
    1.1890   -1.0706    0.0000 C   0  0  0  0  0  0  0  0  0  0  0  0
    1.1890   -2.6706    0.0000 C   0  0  0  0  0  0  0  0  0  0  0  0
    2.5747   -3.4706    0.0000 C   0  0  0  0  0  0  0  0  0  0  0  0
    3.9603   -2.6706    0.0000 C   0  0  0  0  0  0  0  0  0  0  0  0
    3.9603   -1.0706    0.0000 C   0  0  0  0  0  0  0  0  0  0  0  0
    2.5747   -0.2706    0.0000 C   0  0  0  0  0  0  0  0  0  0  0  0
    2.2420    1.2944    0.0000 N   0  0  0  0  0  0  0  0  0  0  0  0
    0.6508    1.4617    0.0000 C   0  0  0  0  0  0  0  0  0  0  0  0
   -0.1492    2.8473    0.0000 O   0  0  0  0  0  0  0  0  0  0  0  0
   -2.6356    0.8564    0.0000 C   0  0  0  0  0  0  0  0  0  0  0  0
   -4.2007    0.5237    0.0000 C   0  0  0  0  0  0  0  0  0  0  0  0
  1  2  1  0  0  0  0
  2  3  1  0  0  0  0
  2  7  2  0  0  0  0
  3  4  2  0  0  0  0
  4  5  1  0  0  0  0
  5  6  2  0  0  0  0
  5  8  1  0  0  0  0
  6  7  1  0  0  0  0
  8  9  2  0  0  0  0
  8 10  1  0  0  0  0
 10 11  1  0  0  0  0
 11 12  1  0  0  0  0
 13 12  1  1  0  0  0
 13 14  1  0  0  0  0
 13 28  1  0  0  0  0
 14 15  1  0  0  0  0
 15 16  2  0  0  0  0
 16 17  1  0  0  0  0
 16 27  1  0  0  0  0
 17 18  2  0  0  0  0
 17 25  1  0  0  0  0
 18 19  1  0  0  0  0
 18 23  1  0  0  0  0
 19 20  2  0  0  0  0
 20 21  1  0  0  0  0
 21 22  2  0  0  0  0
 22 23  1  0  0  0  0
 23 24  2  0  0  0  0
 24 25  1  0  0  0  0
 25 26  2  0  0  0  0
 27 28  1  0  0  0  0
M  CHG  1  17   1
M  END
> <Acceptable>
false

> <IC50>
0.032

$$$$

Generated by Molecular Materials Informatics

 29 33  0  0  0  0  0  0  0  0999 V2000
    4.8621    0.5856    0.0000 C   0  0  0  0  0  0  0  0  0  0  0  0
    4.0621   -0.8000    0.0000 C   0  0  0  0  0  0  0  0  0  0  0  0
    4.8621   -2.1856    0.0000 N   0  0  0  0  0  0  0  0  0  0  0  0
    6.4621    0.5856    0.0000 C   0  0  0  0  0  0  0  0  0  0  0  0
    7.2621   -0.8000    0.0000 C   0  0  0  0  0  0  0  0  0  0  0  0
    6.4621   -2.1856    0.0000 C   0  0  0  0  0  0  0  0  0  0  0  0
    7.2621   -3.5713    0.0000 N   0  0  0  0  0  0  0  0  0  0  0  0
    8.8621   -3.5713    0.0000 C   0  0  0  0  0  0  0  0  0  0  0  0
    9.6621   -2.1856    0.0000 C   0  0  0  0  0  0  0  0  0  0  0  0
    8.8621   -0.8000    0.0000 C   0  0  0  0  0  0  0  0  0  0  0  0
    2.4621   -0.8000    0.0000 N   0  0  0  0  0  0  0  0  0  0  0  0
    1.5217   -2.0944    0.0000 C   0  0  0  0  0  0  0  0  0  0  0  0
    0.0000   -1.6000    0.0000 C   0  0  0  0  0  0  0  0  0  0  0  0
    0.0000    0.0000    0.0000 C   0  0  0  0  0  0  0  0  0  0  0  0
    1.5217    0.4944    0.0000 C   0  0  0  0  0  0  0  0  0  0  0  0
   -1.5803   -0.2503    0.0000 C   0  0  0  0  0  0  0  0  0  0  0  0
   -1.8306    1.3300    0.0000 N   0  0  0  0  0  0  0  0  0  0  0  0
   -0.2503    1.5803    0.0000 C   0  0  0  0  0  0  0  0  0  0  0  0
   -1.2944   -2.5405    0.0000 N   0  0  0  0  0  0  0  0  0  0  0  0
   -1.1272   -4.1317    0.0000 O   0  0  0  0  0  0  0  0  0  0  0  0
   -2.4216   -5.0721    0.0000 C   0  0  0  0  0  0  0  0  0  0  0  0
    4.0621    1.9713    0.0000 F   0  0  0  0  0  0  0  0  0  0  0  0
    9.6621    0.5856    0.0000 O   0  0  0  0  0  0  0  0  0  0  0  0
   11.2621   -2.1856    0.0000 C   0  0  0  0  0  0  0  0  0  0  0  0
   12.0621   -0.8000    0.0000 O   0  0  0  0  0  0  0  0  0  0  0  0
   12.0621   -3.5713    0.0000 O   0  0  0  0  0  0  0  0  0  0  0  0
    6.4621   -4.9569    0.0000 C   0  0  0  0  0  0  0  0  0  0  0  0
    6.4621   -6.5569    0.0000 C   0  0  0  0  0  0  0  0  0  0  0  0
    5.0765   -5.7569    0.0000 C   0  0  0  0  0  0  0  0  0  0  0  0
  1  2  2  0  0  0  0
  1  4  1  0  0  0  0
  1 22  1  0  0  0  0
  2  3  1  0  0  0  0
  2 11  1  0  0  0  0
  3  6  2  0  0  0  0
  4  5  2  0  0  0  0
  5  6  1  0  0  0  0
  5 10  1  0  0  0  0
  6  7  1  0  0  0  0
  7  8  1  0  0  0  0
  7 27  1  0  0  0  0
  8  9  1  0  0  0  0
  9 10  1  0  0  0  0
  9 24  1  6  0  0  0
 10 23  2  0  0  0  0
 11 12  1  0  0  0  0
 11 15  1  0  0  0  0
 12 13  1  0  0  0  0
 13 14  1  0  0  0  0
 13 19  2  0  0  0  0
 14 15  1  0  0  0  0
 14 16  1  0  0  0  0
 14 18  1  0  0  0  0
 16 17  1  0  0  0  0
 17 18  1  0  0  0  0
 19 20  1  0  0  0  0
 20 21  1  0  0  0  0
 24 25  1  0  0  0  0
 24 26  2  0  0  0  0
 27 28  1  0  0  0  0
 27 29  1  0  0  0  0
 28 29  1  0  0  0  0
M  END
> <Acceptable>
true

> <IC50>
218.1

$$$$

Generated by Molecular Materials Informatics

 18 19  0  0  0  0  0  0  0  0999 V2000
   -4.8000    0.0000    0.0000 O   0  0  0  0  0  0  0  0  0  0  0  0
   -3.2000    0.0000    0.0000 C   0  0  0  0  0  0  0  0  0  0  0  0
   -2.4000   -1.3856    0.0000 N   0  0  0  0  0  0  0  0  0  0  0  0
   -3.2000   -2.7713    0.0000 C   0  0  0  0  0  0  0  0  0  0  0  0
   -0.8000   -1.3856    0.0000 C   0  0  0  0  0  0  0  0  0  0  0  0
    0.2706   -2.5747    0.0000 N   0  0  0  0  0  0  0  0  0  0  0  0
    1.7323   -1.9239    0.0000 C   0  0  0  0  0  0  0  0  0  0  0  0
    1.5650   -0.3327    0.0000 N   0  0  0  0  0  0  0  0  0  0  0  0
    2.7541    0.7380    0.0000 C   0  0  0  0  0  0  0  0  0  0  0  0
    4.2758    0.2435    0.0000 C   0  0  0  0  0  0  0  0  0  0  0  0
    4.6084   -1.3215    0.0000 O   0  0  0  0  0  0  0  0  0  0  0  0
    5.4648    1.3141    0.0000 C   0  0  0  0  0  0  0  0  0  0  0  0
    6.9865    0.8197    0.0000 O   0  0  0  0  0  0  0  0  0  0  0  0
    0.0000    0.0000    0.0000 C   0  0  0  0  0  0  0  0  0  0  0  0
   -0.8000    1.3856    0.0000 C   0  0  0  0  0  0  0  0  0  0  0  0
    0.0000    2.7713    0.0000 O   0  0  0  0  0  0  0  0  0  0  0  0
   -2.4000    1.3856    0.0000 N   0  0  0  0  0  0  0  0  0  0  0  0
   -3.2000    2.7713    0.0000 C   0  0  0  0  0  0  0  0  0  0  0  0
  1  2  2  0  0  0  0
  2  3  1  0  0  0  0
  2 17  1  0  0  0  0
  3  4  1  0  0  0  0
  3  5  1  0  0  0  0
  5  6  1  0  0  0  0
  5 14  2  0  0  0  0
  6  7  2  0  0  0  0
  7  8  1  0  0  0  0
  8  9  1  0  0  0  0
  8 14  1  0  0  0  0
  9 10  1  0  0  0  0
 10 11  1  1  0  0  0
 10 12  1  0  0  0  0
 12 13  1  0  0  0  0
 14 15  1  0  0  0  0
 15 16  2  0  0  0  0
 15 17  1  0  0  0  0
 17 18  1  0  0  0  0
M  END
> <Acceptable>
true

> <IC50>
N/A

$$$$

Generated by Molecular Materials Informatics

 28 30  0  0  0  0  0  0  0  0999 V2000
    6.9282    2.4000    0.0000 S   0  0  0  0  0  0  0  0  0  0  0  0
    6.1282    1.0144    0.0000 O   0  0  0  0  0  0  0  0  0  0  0  0
    7.7282    3.7856    0.0000 O   0  0  0  0  0  0  0  0  0  0  0  0
    5.5426    3.2000    0.0000 N   0  0  0  0  0  0  0  0  0  0  0  0
    4.1569    2.4000    0.0000 C   0  0  0  0  0  0  0  0  0  0  0  0
    2.7713    3.2000    0.0000 C   0  0  0  0  0  0  0  0  0  0  0  0
    1.3856    2.4000    0.0000 C   0  0  0  0  0  0  0  0  0  0  0  0
    1.3856    0.8000    0.0000 C   0  0  0  0  0  0  0  0  0  0  0  0
    2.7713    0.0000    0.0000 C   0  0  0  0  0  0  0  0  0  0  0  0
    4.1569    0.8000    0.0000 C   0  0  0  0  0  0  0  0  0  0  0  0
    0.0000    0.0000    0.0000 C   0  0  0  0  0  0  0  0  0  0  0  0
    0.0000   -1.6000    0.0000 O   0  0  0  0  0  0  0  0  0  0  0  0
   -1.3856    0.8000    0.0000 C   0  0  0  0  0  0  0  0  0  0  0  0
   -1.3856    2.4000    0.0000 C   0  0  0  0  0  0  0  0  0  0  0  0
   -2.7713    3.2000    0.0000 C   0  0  0  0  0  0  0  0  0  0  0  0
   -4.1569    2.4000    0.0000 N   0  0  0  0  0  0  0  0  0  0  0  0
   -4.1569    0.8000    0.0000 C   0  0  0  0  0  0  0  0  0  0  0  0
   -2.7713    0.0000    0.0000 C   0  0  0  0  0  0  0  0  0  0  0  0
   -5.5426    3.2000    0.0000 C   0  0  0  0  0  0  0  0  0  0  0  0
   -6.9282    2.4000    0.0000 C   0  0  0  0  0  0  0  0  0  0  0  0
   -8.3138    3.2000    0.0000 C   0  0  0  0  0  0  0  0  0  0  0  0
   -8.3138    4.8000    0.0000 N   0  0  0  0  0  0  0  0  0  0  0  0
   -9.6995    5.6000    0.0000 C   0  0  0  0  0  0  0  0  0  0  0  0
   -9.6995    7.2000    0.0000 C   0  0  0  0  0  0  0  0  0  0  0  0
  -11.0851    4.8000    0.0000 C   0  0  0  0  0  0  0  0  0  0  0  0
  -11.0851    3.2000    0.0000 C   0  0  0  0  0  0  0  0  0  0  0  0
   -9.6995    2.4000    0.0000 C   0  0  0  0  0  0  0  0  0  0  0  0
    8.3138    1.6000    0.0000 C   0  0  0  0  0  0  0  0  0  0  0  0
  1  2  2  0  0  0  0
  1  3  2  0  0  0  0
  1  4  1  0  0  0  0
  1 28  1  0  0  0  0
  4  5  1  0  0  0  0
  5  6  1  0  0  0  0
  5 10  2  0  0  0  0
  6  7  2  0  0  0  0
  7  8  1  0  0  0  0
  8  9  2  0  0  0  0
  8 11  1  0  0  0  0
  9 10  1  0  0  0  0
 11 12  2  0  0  0  0
 13 11  1  1  0  0  0
 13 14  1  0  0  0  0
 13 18  1  0  0  0  0
 14 15  1  0  0  0  0
 15 16  1  0  0  0  0
 16 17  1  0  0  0  0
 16 19  1  6  0  0  0
 17 18  1  0  0  0  0
 19 20  1  0  0  0  0
 20 21  1  0  0  0  0
 21 22  1  0  0  0  0
 21 27  2  0  0  0  0
 22 23  2  0  0  0  0
 23 24  1  0  0  0  0
 23 25  1  0  0  0  0
 25 26  2  0  0  0  0
 26 27  1  0  0  0  0
M  END
> <Acceptable>
false

> <IC50>
0.012

$$$$

Generated by Molecular Materials Informatics

 35 38  0  0  0  0  0  0  0  0999 V2000
   11.0851    0.0000    0.0000 O   0  0  0  0  0  0  0  0  0  0  0  0
   11.0851   -1.6000    0.0000 C   0  0  0  0  0  0  0  0  0  0  0  0
    9.6995   -2.4000    0.0000 C   0  0  0  0  0  0  0  0  0  0  0  0
    8.3138   -1.6000    0.0000 C   0  0  0  0  0  0  0  0  0  0  0  0
    6.9282   -2.4000    0.0000 C   0  0  0  0  0  0  0  0  0  0  0  0
    5.5426   -1.6000    0.0000 N   0  0  0  0  0  0  0  0  0  0  0  0
    5.5426    0.0000    0.0000 C   0  0  0  0  0  0  0  0  0  0  0  0
    4.1569    0.8000    0.0000 C   0  0  0  0  0  0  0  0  0  0  0  0
    2.7713    0.0000    0.0000 C   0  0  0  0  0  0  0  0  0  0  0  0
    1.3856    0.8000    0.0000 O   0  0  0  0  0  0  0  0  0  0  0  0
    0.0000    0.0000    0.0000 C   0  0  0  0  0  0  0  0  0  0  0  0
    0.0000   -1.6000    0.0000 C   0  0  0  0  0  0  0  0  0  0  0  0
   -1.3856   -2.4000    0.0000 C   0  0  0  0  0  0  0  0  0  0  0  0
   -1.3856   -4.0000    0.0000 C   0  0  0  0  0  0  0  0  0  0  0  0
    0.0000   -4.8000    0.0000 C   0  0  0  0  0  0  0  0  0  0  0  0
    1.3856   -4.0000    0.0000 C   0  0  0  0  0  0  0  0  0  0  0  0
    1.3856   -2.4000    0.0000 C   0  0  0  0  0  0  0  0  0  0  0  0
   -1.3856    0.8000    0.0000 C   0  0  0  0  0  0  0  0  0  0  0  0
   -1.3856    2.4000    0.0000 C   0  0  0  0  0  0  0  0  0  0  0  0
   -2.7713    3.2000    0.0000 C   0  0  0  0  0  0  0  0  0  0  0  0
   -4.1569    2.4000    0.0000 C   0  0  0  0  0  0  0  0  0  0  0  0
   -4.1569    0.8000    0.0000 C   0  0  0  0  0  0  0  0  0  0  0  0
   -2.7713    0.0000    0.0000 C   0  0  0  0  0  0  0  0  0  0  0  0
    2.7713   -1.6000    0.0000 C   0  0  0  0  0  0  0  0  0  0  0  0
    4.1569   -2.4000    0.0000 C   0  0  0  0  0  0  0  0  0  0  0  0
   12.4708   -2.4000    0.0000 C   0  0  0  0  0  0  0  0  0  0  0  0
   12.4708   -4.0000    0.0000 C   0  0  0  0  0  0  0  0  0  0  0  0
   13.8564   -4.8000    0.0000 C   0  0  0  0  0  0  0  0  0  0  0  0
   15.2420   -4.0000    0.0000 C   0  0  0  0  0  0  0  0  0  0  0  0
   15.2420   -2.4000    0.0000 C   0  0  0  0  0  0  0  0  0  0  0  0
   13.8564   -1.6000    0.0000 C   0  0  0  0  0  0  0  0  0  0  0  0
   16.6277   -4.8000    0.0000 C   0  0  0  0  0  0  0  0  0  0  0  0
   18.0133   -4.0000    0.0000 C   0  0  0  0  0  0  0  0  0  0  0  0
   16.6277   -6.4000    0.0000 C   0  0  0  0  0  0  0  0  0  0  0  0
   18.0133   -5.6000    0.0000 C   0  0  0  0  0  0  0  0  0  0  0  0
  1  2  2  0  0  0  0
  2  3  1  0  0  0  0
  2 26  1  0  0  0  0
  3  4  1  0  0  0  0
  4  5  1  0  0  0  0
  6  5  1  1  0  0  0
  6  7  1  0  0  0  0
  6 25  1  0  0  0  0
  7  8  1  0  0  0  0
  8  9  1  0  0  0  0
  9 10  1  1  0  0  0
  9 24  1  0  0  0  0
 10 11  1  0  0  0  0
 11 12  1  0  0  0  0
 11 18  1  0  0  0  0
 12 13  1  0  0  0  0
 12 17  2  0  0  0  0
 13 14  2  0  0  0  0
 14 15  1  0  0  0  0
 15 16  2  0  0  0  0
 16 17  1  0  0  0  0
 18 19  1  0  0  0  0
 18 23  2  0  0  0  0
 19 20  2  0  0  0  0
 20 21  1  0  0  0  0
 21 22  2  0  0  0  0
 22 23  1  0  0  0  0
 24 25  1  0  0  0  0
 26 27  1  0  0  0  0
 26 31  2  0  0  0  0
 27 28  2  0  0  0  0
 28 29  1  0  0  0  0
 29 30  2  0  0  0  0
 29 32  1  0  0  0  0
 30 31  1  0  0  0  0
 32 33  1  0  0  0  0
 32 34  1  0  0  0  0
 32 35  1  0  0  0  0
M  END
> <Acceptable>
false

> <IC50>
0.331

$$$$

Generated by Molecular Materials Informatics

 14 15  0  0  0  0  0  0  0  0999 V2000
   -0.4681    2.7315    0.0000 O   0  0  0  0  0  0  0  0  0  0  0  0
   -1.0225    1.2306    0.0000 C   0  0  0  0  0  0  0  0  0  0  0  0
   -2.5996    0.9604    0.0000 O   0  0  0  0  0  0  0  0  0  0  0  0
   -3.6221    2.1910    0.0000 C   0  0  0  0  0  0  0  0  0  0  0  0
    0.0000    0.0000    0.0000 C   0  0  0  0  0  0  0  0  0  0  0  0
    1.8013   -0.0301    0.0000 C   0  0  0  0  0  0  0  0  0  0  0  0
    2.8885    0.8231    0.0000 N   0  0  0  0  0  0  0  0  0  0  0  0
    3.7081    2.1972    0.0000 C   0  0  0  0  0  0  0  0  0  0  0  0
    2.6176   -0.7538    0.0000 C   0  0  0  0  0  0  0  0  0  0  0  0
    0.7331   -0.7538    0.0000 C   0  0  0  0  0  0  0  0  0  0  0  0
   -0.2680   -1.5852    0.0000 C   0  0  0  0  0  0  0  0  0  0  0  0
   -1.0667   -2.9717    0.0000 O   0  0  0  0  0  0  0  0  0  0  0  0
    3.6258   -2.1352    0.0000 C   0  0  0  0  0  0  0  0  0  0  0  0
    2.4228   -1.4043    0.0000 C   0  0  0  0  0  0  0  0  0  0  0  0
  1  2  2  0  0  0  0
  2  3  1  0  0  0  0
  5  2  1  6  0  0  0
  3  4  1  0  0  0  0
  5  6  1  0  0  0  0
  5 11  1  0  0  0  0
  6  7  1  0  0  0  0
  6 14  1  6  0  0  0
  7  8  1  6  0  0  0
  7  9  1  0  0  0  0
  9 10  1  1  0  0  0
  9 13  1  0  0  0  0
 10 11  1  0  0  0  0
 11 12  1  6  0  0  0
 13 14  1  0  0  0  0
M  END
> <Acceptable>
true

> <IC50>
6025

$$$$

Generated by Molecular Materials Informatics

 19 20  0  0  0  0  0  0  0  0999 V2000
    0.8000   -1.3856    0.0000 S   0  0  0  0  0  0  0  0  0  0  0  0
    0.0000    0.0000    0.0000 P   0  0  0  0  0  0  0  0  0  0  0  0
   -0.8000    1.3856    0.0000 S   0  0  0  0  0  0  0  0  0  0  0  0
   -2.4000    1.3856    0.0000 C   0  0  0  0  0  0  0  0  0  0  0  0
   -3.2000    0.0000    0.0000 C   0  0  0  0  0  0  0  0  0  0  0  0
   -4.8000    0.0000    0.0000 C   0  0  0  0  0  0  0  0  0  0  0  0
   -5.6000    1.3856    0.0000 C   0  0  0  0  0  0  0  0  0  0  0  0
   -4.8000    2.7713    0.0000 C   0  0  0  0  0  0  0  0  0  0  0  0
   -3.2000    2.7713    0.0000 C   0  0  0  0  0  0  0  0  0  0  0  0
   -0.8000   -1.3856    0.0000 O   0  0  0  0  0  0  0  0  0  0  0  0
    1.6000    0.0000    0.0000 O   0  0  0  0  0  0  0  0  0  0  0  0
    2.4000    1.3856    0.0000 C   0  0  0  0  0  0  0  0  0  0  0  0
    1.6000    2.7713    0.0000 C   0  0  0  0  0  0  0  0  0  0  0  0
    2.4000   -1.3856    0.0000 C   0  0  0  0  0  0  0  0  0  0  0  0
    3.2000    0.0000    0.0000 C   0  0  0  0  0  0  0  0  0  0  0  0
    4.8000    0.0000    0.0000 C   0  0  0  0  0  0  0  0  0  0  0  0
    5.6000   -1.3856    0.0000 C   0  0  0  0  0  0  0  0  0  0  0  0
    4.8000   -2.7713    0.0000 C   0  0  0  0  0  0  0  0  0  0  0  0
    3.2000   -2.7713    0.0000 C   0  0  0  0  0  0  0  0  0  0  0  0
  1  2  1  0  0  0  0
  1 14  1  0  0  0  0
  2  3  1  0  0  0  0
  2 10  2  0  0  0  0
  2 11  1  0  0  0  0
  3  4  1  0  0  0  0
  4  5  1  0  0  0  0
  4  9  2  0  0  0  0
  5  6  2  0  0  0  0
  6  7  1  0  0  0  0
  7  8  2  0  0  0  0
  8  9  1  0  0  0  0
 11 12  1  0  0  0  0
 12 13  1  0  0  0  0
 14 15  1  0  0  0  0
 14 19  2  0  0  0  0
 15 16  2  0  0  0  0
 16 17  1  0  0  0  0
 17 18  2  0  0  0  0
 18 19  1  0  0  0  0
M  END
> <Acceptable>
true

> <IC50>
50

$$$$

Generated by Molecular Materials Informatics

 21 23  0  0  0  0  0  0  0  0999 V2000
   -4.8000    2.7713    0.0000 Cl  0  0  0  0  0  0  0  0  0  0  0  0
   -3.2000    2.7713    0.0000 C   0  0  0  0  0  0  0  0  0  0  0  0
   -2.4000    4.1569    0.0000 C   0  0  0  0  0  0  0  0  0  0  0  0
   -0.8000    4.1569    0.0000 C   0  0  0  0  0  0  0  0  0  0  0  0
    0.0000    2.7713    0.0000 C   0  0  0  0  0  0  0  0  0  0  0  0
    1.6000    2.7713    0.0000 N   0  0  0  0  0  0  0  0  0  0  0  0
    2.4000    1.3856    0.0000 C   0  0  0  0  0  0  0  0  0  0  0  0
    4.0000    1.3856    0.0000 O   0  0  0  0  0  0  0  0  0  0  0  0
    1.6000    0.0000    0.0000 O   0  0  0  0  0  0  0  0  0  0  0  0
    0.0000    0.0000    0.0000 C   0  0  0  0  0  0  0  0  0  0  0  0
   -1.5035   -0.5472    0.0000 C   0  0  0  0  0  0  0  0  0  0  0  0
   -3.0070   -1.0945    0.0000 C   0  0  0  0  0  0  0  0  0  0  0  0
   -4.5105   -1.6417    0.0000 C   0  0  0  0  0  0  0  0  0  0  0  0
   -5.5390   -2.8674    0.0000 C   0  0  0  0  0  0  0  0  0  0  0  0
   -6.0862   -1.3639    0.0000 C   0  0  0  0  0  0  0  0  0  0  0  0
   -0.8000    1.3856    0.0000 C   0  0  0  0  0  0  0  0  0  0  0  0
   -2.4000    1.3856    0.0000 C   0  0  0  0  0  0  0  0  0  0  0  0
    0.2778   -1.5757    0.0000 C   0  0  0  0  0  0  0  0  0  0  0  0
    1.7813   -2.1229    0.0000 F   0  0  0  0  0  0  0  0  0  0  0  0
   -0.9478   -2.6042    0.0000 F   0  0  0  0  0  0  0  0  0  0  0  0
    0.5557   -3.1514    0.0000 F   0  0  0  0  0  0  0  0  0  0  0  0
  1  2  1  0  0  0  0
  2  3  1  0  0  0  0
  2 17  2  0  0  0  0
  3  4  2  0  0  0  0
  4  5  1  0  0  0  0
  5  6  1  0  0  0  0
  5 16  2  0  0  0  0
  6  7  1  0  0  0  0
  7  8  2  0  0  0  0
  7  9  1  0  0  0  0
  9 10  1  0  0  0  0
 10 11  1  0  0  0  0
 10 16  1  0  0  0  0
 10 18  1  6  0  0  0
 11 12  3  0  0  0  0
 12 13  1  0  0  0  0
 13 14  1  0  0  0  0
 13 15  1  0  0  0  0
 14 15  1  0  0  0  0
 16 17  1  0  0  0  0
 18 19  1  0  0  0  0
 18 20  1  0  0  0  0
 18 21  1  0  0  0  0
M  END
> <Acceptable>
true

> <IC50>
N/A

$$$$

Generated by Molecular Materials Informatics

 33 36  0  0  0  0  0  0  0  0999 V2000
    4.8000    2.7713    0.0000 C   0  0  0  0  0  0  0  0  0  0  0  0
    4.0000    4.1569    0.0000 C   0  0  0  0  0  0  0  0  0  0  0  0
    2.4000    4.1569    0.0000 C   0  0  0  0  0  0  0  0  0  0  0  0
    4.0000    1.3856    0.0000 C   0  0  0  0  0  0  0  0  0  0  0  0
    2.4000    1.3856    0.0000 C   0  0  0  0  0  0  0  0  0  0  0  0
    1.6000    2.7713    0.0000 C   0  0  0  0  0  0  0  0  0  0  0  0
    0.0000    2.7713    0.0000 C   0  0  0  0  0  0  0  0  0  0  0  0
   -0.8000    1.3856    0.0000 C   0  0  0  0  0  0  0  0  0  0  0  0
    0.0000    0.0000    0.0000 C   0  0  0  0  0  0  0  0  0  0  0  0
    1.6000    0.0000    0.0000 O   0  0  0  0  0  0  0  0  0  0  0  0
   -0.8000   -1.3856    0.0000 C   0  0  0  0  0  0  0  0  0  0  0  0
   -2.4000    1.3856    0.0000 O   0  0  0  0  0  0  0  0  0  0  0  0
    0.0000   -2.7713    0.0000 C   0  0  0  0  0  0  0  0  0  0  0  0
   -0.8000   -4.1569    0.0000 C   0  0  0  0  0  0  0  0  0  0  0  0
   -2.4000   -4.1569    0.0000 C   0  0  0  0  0  0  0  0  0  0  0  0
   -3.2000   -2.7713    0.0000 C   0  0  0  0  0  0  0  0  0  0  0  0
   -2.4000   -1.3856    0.0000 C   0  0  0  0  0  0  0  0  0  0  0  0
   -4.8000   -2.7713    0.0000 O   0  0  0  0  0  0  0  0  0  0  0  0
   -3.2000   -5.5426    0.0000 O   0  0  0  0  0  0  0  0  0  0  0  0
    0.0000   -5.5426    0.0000 O   0  0  0  0  0  0  0  0  0  0  0  0
   -3.2000    2.7713    0.0000 C   0  0  0  0  0  0  0  0  0  0  0  0
   -4.8000    2.7713    0.0000 C   0  0  0  0  0  0  0  0  0  0  0  0
   -2.4000    4.1569    0.0000 O   0  0  0  0  0  0  0  0  0  0  0  0
   -5.6000    1.3856    0.0000 C   0  0  0  0  0  0  0  0  0  0  0  0
   -7.2000    1.3856    0.0000 C   0  0  0  0  0  0  0  0  0  0  0  0
   -8.0000    2.7713    0.0000 C   0  0  0  0  0  0  0  0  0  0  0  0
   -7.2000    4.1569    0.0000 C   0  0  0  0  0  0  0  0  0  0  0  0
   -5.6000    4.1569    0.0000 C   0  0  0  0  0  0  0  0  0  0  0  0
   -8.0000    5.5426    0.0000 O   0  0  0  0  0  0  0  0  0  0  0  0
   -9.6000    2.7713    0.0000 O   0  0  0  0  0  0  0  0  0  0  0  0
   -8.0000    0.0000    0.0000 O   0  0  0  0  0  0  0  0  0  0  0  0
    1.6000    5.5426    0.0000 O   0  0  0  0  0  0  0  0  0  0  0  0
    6.4000    2.7713    0.0000 O   0  0  0  0  0  0  0  0  0  0  0  0
  1  2  2  0  0  0  0
  1  4  1  0  0  0  0
  1 33  1  0  0  0  0
  2  3  1  0  0  0  0
  3  6  2  0  0  0  0
  3 32  1  0  0  0  0
  4  5  2  0  0  0  0
  5  6  1  0  0  0  0
  5 10  1  0  0  0  0
  6  7  1  0  0  0  0
  7  8  1  0  0  0  0
  8  9  1  0  0  0  0
  8 12  1  6  0  0  0
  9 10  1  0  0  0  0
  9 11  1  6  0  0  0
 11 13  1  0  0  0  0
 11 17  2  0  0  0  0
 12 21  1  0  0  0  0
 13 14  2  0  0  0  0
 14 15  1  0  0  0  0
 14 20  1  0  0  0  0
 15 16  2  0  0  0  0
 15 19  1  0  0  0  0
 16 17  1  0  0  0  0
 16 18  1  0  0  0  0
 21 22  1  0  0  0  0
 21 23  2  0  0  0  0
 22 24  1  0  0  0  0
 22 28  2  0  0  0  0
 24 25  2  0  0  0  0
 25 26  1  0  0  0  0
 25 31  1  0  0  0  0
 26 27  2  0  0  0  0
 26 30  1  0  0  0  0
 27 28  1  0  0  0  0
 27 29  1  0  0  0  0
M  END
> <Acceptable>
false

> <IC50>
6

$$$$

Generated by Molecular Materials Informatics

 26 27  0  0  0  0  0  0  0  0999 V2000
   -1.3856    2.4000    0.0000 Cl  0  0  0  0  0  0  0  0  0  0  0  0
   -1.3856    0.8000    0.0000 C   0  0  0  0  0  0  0  0  0  0  0  0
   -2.7713    0.0000    0.0000 C   0  0  0  0  0  0  0  0  0  0  0  0
   -2.7713   -1.6000    0.0000 N   0  0  0  0  0  0  0  0  0  0  0  0
   -1.3856   -2.4000    0.0000 N   0  0  0  0  0  0  0  0  0  0  0  0
    0.0000   -1.6000    0.0000 C   0  0  0  0  0  0  0  0  0  0  0  0
    1.3856   -2.4000    0.0000 O   0  0  0  0  0  0  0  0  0  0  0  0
    0.0000    0.0000    0.0000 C   0  0  0  0  0  0  0  0  0  0  0  0
    1.3856    0.8000    0.0000 N   0  0  0  0  0  0  0  0  0  0  0  0
    2.7713    0.0000    0.0000 C   0  0  0  0  0  0  0  0  0  0  0  0
    4.1569    0.8000    0.0000 C   0  0  0  0  0  0  0  0  0  0  0  0
    5.5426    0.0000    0.0000 C   0  0  0  0  0  0  0  0  0  0  0  0
    6.9282    0.8000    0.0000 N   0  0  0  0  0  0  0  0  0  0  0  0
    6.9282    2.4000    0.0000 C   0  0  0  0  0  0  0  0  0  0  0  0
    8.3138    0.0000    0.0000 C   0  0  0  0  0  0  0  0  0  0  0  0
    9.6995    0.8000    0.0000 C   0  0  0  0  0  0  0  0  0  0  0  0
   11.0851    0.0000    0.0000 C   0  0  0  0  0  0  0  0  0  0  0  0
   11.0851   -1.6000    0.0000 C   0  0  0  0  0  0  0  0  0  0  0  0
   12.4708   -2.4000    0.0000 C   0  0  0  0  0  0  0  0  0  0  0  0
   13.8564   -1.6000    0.0000 C   0  0  0  0  0  0  0  0  0  0  0  0
   15.2420   -2.4000    0.0000 O   0  0  0  0  0  0  0  0  0  0  0  0
   15.2420   -4.0000    0.0000 C   0  0  0  0  0  0  0  0  0  0  0  0
   13.8564    0.0000    0.0000 C   0  0  0  0  0  0  0  0  0  0  0  0
   15.2420    0.8000    0.0000 O   0  0  0  0  0  0  0  0  0  0  0  0
   15.2420    2.4000    0.0000 C   0  0  0  0  0  0  0  0  0  0  0  0
   12.4708    0.8000    0.0000 C   0  0  0  0  0  0  0  0  0  0  0  0
  1  2  1  0  0  0  0
  2  3  1  0  0  0  0
  2  8  2  0  0  0  0
  3  4  2  0  0  0  0
  4  5  1  0  0  0  0
  5  6  1  0  0  0  0
  6  7  2  0  0  0  0
  6  8  1  0  0  0  0
  8  9  1  0  0  0  0
  9 10  1  0  0  0  0
 10 11  1  0  0  0  0
 11 12  1  0  0  0  0
 12 13  1  0  0  0  0
 13 14  1  6  0  0  0
 13 15  1  0  0  0  0
 15 16  1  0  0  0  0
 16 17  1  0  0  0  0
 17 18  1  0  0  0  0
 17 26  2  0  0  0  0
 18 19  2  0  0  0  0
 19 20  1  0  0  0  0
 20 21  1  0  0  0  0
 20 23  2  0  0  0  0
 21 22  1  0  0  0  0
 23 24  1  0  0  0  0
 23 26  1  0  0  0  0
 24 25  1  0  0  0  0
M  END
> <Acceptable>
false

> <IC50>
6.6

$$$$

Generated by Molecular Materials Informatics

 24 26  0  0  0  0  0  0  0  0999 V2000
    0.0000    0.0000    0.0000 C   0  0  0  0  0  0  0  0  0  0  0  0
    1.3856   -0.8000    0.0000 C   0  0  0  0  0  0  0  0  0  0  0  0
    0.0000    1.6000    0.0000 C   0  0  0  0  0  0  0  0  0  0  0  0
   -1.3856   -0.8000    0.0000 C   0  0  0  0  0  0  0  0  0  0  0  0
    2.7713    0.0000    0.0000 C   0  0  0  0  0  0  0  0  0  0  0  0
    1.3856   -2.4000    0.0000 O   0  0  0  0  0  0  0  0  0  0  0  0
   -1.3856    2.4000    0.0000 C   0  0  0  0  0  0  0  0  0  0  0  0
   -2.7713    0.0000    0.0000 C   0  0  0  0  0  0  0  0  0  0  0  0
    4.1569   -0.8000    0.0000 N   0  0  0  0  0  0  0  0  0  0  0  0
   -2.7713    1.6000    0.0000 C   0  0  0  0  0  0  0  0  0  0  0  0
    4.1569   -2.4000    0.0000 C   0  0  0  0  0  0  0  0  0  0  0  0
    5.5426    0.0000    0.0000 C   0  0  0  0  0  0  0  0  0  0  0  0
   -4.1569    2.4000    0.0000 Cl  0  0  0  0  0  0  0  0  0  0  0  0
    5.5426   -3.2000    0.0000 C   0  0  0  0  0  0  0  0  0  0  0  0
    6.9282   -0.8000    0.0000 C   0  0  0  0  0  0  0  0  0  0  0  0
    6.9282   -2.4000    0.0000 C   0  0  0  0  0  0  0  0  0  0  0  0
    8.3138   -3.2000    0.0000 C   0  0  0  0  0  0  0  0  0  0  0  0
    9.6995   -2.4000    0.0000 C   0  0  0  0  0  0  0  0  0  0  0  0
   11.0851   -3.2000    0.0000 C   0  0  0  0  0  0  0  0  0  0  0  0
    9.6995   -0.8000    0.0000 C   0  0  0  0  0  0  0  0  0  0  0  0
   12.4708   -2.4000    0.0000 C   0  0  0  0  0  0  0  0  0  0  0  0
   11.0851    0.0000    0.0000 C   0  0  0  0  0  0  0  0  0  0  0  0
   12.4708   -0.8000    0.0000 C   0  0  0  0  0  0  0  0  0  0  0  0
   13.8564    0.0000    0.0000 F   0  0  0  0  0  0  0  0  0  0  0  0
  1  2  1  0  0  0  0
  1  3  2  0  0  0  0
  1  4  1  0  0  0  0
  2  5  1  0  0  0  0
  2  6  1  6  0  0  0
  3  7  1  0  0  0  0
  4  8  2  0  0  0  0
  9  5  1  1  0  0  0
  7 10  2  0  0  0  0
  8 10  1  0  0  0  0
  9 11  1  0  0  0  0
  9 12  1  0  0  0  0
 10 13  1  0  0  0  0
 11 14  1  0  0  0  0
 12 15  1  0  0  0  0
 14 16  1  0  0  0  0
 15 16  1  0  0  0  0
 16 17  1  6  0  0  0
 17 18  1  0  0  0  0
 18 19  2  0  0  0  0
 18 20  1  0  0  0  0
 19 21  1  0  0  0  0
 20 22  2  0  0  0  0
 21 23  2  0  0  0  0
 22 23  1  0  0  0  0
 23 24  1  0  0  0  0
M  END
> <Acceptable>
false

> <IC50>
0.02

$$$$

Generated by Molecular Materials Informatics

 33 36  0  0  0  0  0  0  0  0999 V2000
    2.0161    2.0161    0.0000 O   0  0  0  0  0  0  0  0  0  0  0  0
    6.4621    0.5856    0.0000 O   0  0  0  0  0  0  0  0  0  0  0  0
   14.4621    0.5856    0.0000 O   0  0  0  0  0  0  0  0  0  0  0  0
   14.4622    3.3569    0.0000 O   0  0  0  0  0  0  0  0  0  0  0  0
    0.0000    0.0000    0.0000 N   0  0  0  0  0  0  0  0  0  0  0  0
    0.0000   -1.6000    0.0000 N   0  0  0  0  0  0  0  0  0  0  0  0
    4.0621   -0.8000    0.0000 N   0  0  0  0  0  0  0  0  0  0  0  0
    4.8621   -2.1856    0.0000 N   0  0  0  0  0  0  0  0  0  0  0  0
   -1.2944    0.9405    0.0000 C   0  0  0  0  0  0  0  0  0  0  0  0
    1.5217   -2.0944    0.0000 C   0  0  0  0  0  0  0  0  0  0  0  0
    2.4621   -0.8000    0.0000 C   0  0  0  0  0  0  0  0  0  0  0  0
    1.5217    0.4944    0.0000 C   0  0  0  0  0  0  0  0  0  0  0  0
   -2.4216    3.4721    0.0000 C   0  0  0  0  0  0  0  0  0  0  0  0
   -1.1272    2.5317    0.0000 C   0  0  0  0  0  0  0  0  0  0  0  0
   -3.8833    2.8214    0.0000 C   0  0  0  0  0  0  0  0  0  0  0  0
   -2.7561    0.2897    0.0000 C   0  0  0  0  0  0  0  0  0  0  0  0
   -4.0505    1.2301    0.0000 C   0  0  0  0  0  0  0  0  0  0  0  0
    2.0161   -3.6161    0.0000 C   0  0  0  0  0  0  0  0  0  0  0  0
   -2.2544    5.0634    0.0000 C   0  0  0  0  0  0  0  0  0  0  0  0
   -5.1777    3.7618    0.0000 C   0  0  0  0  0  0  0  0  0  0  0  0
    8.8621   -0.8000    0.0000 C   0  0  0  0  0  0  0  0  0  0  0  0
    6.4621   -2.1856    0.0000 C   0  0  0  0  0  0  0  0  0  0  0  0
    9.6621    0.5856    0.0000 C   0  0  0  0  0  0  0  0  0  0  0  0
    7.2621   -0.8000    0.0000 C   0  0  0  0  0  0  0  0  0  0  0  0
    9.6621   -2.1856    0.0000 C   0  0  0  0  0  0  0  0  0  0  0  0
    7.2621   -3.5713    0.0000 C   0  0  0  0  0  0  0  0  0  0  0  0
   11.2621    0.5856    0.0000 C   0  0  0  0  0  0  0  0  0  0  0  0
    8.8621   -3.5713    0.0000 C   0  0  0  0  0  0  0  0  0  0  0  0
    8.8621    1.9713    0.0000 C   0  0  0  0  0  0  0  0  0  0  0  0
   12.0622    1.9713    0.0000 C   0  0  0  0  0  0  0  0  0  0  0  0
    9.6622    3.3569    0.0000 C   0  0  0  0  0  0  0  0  0  0  0  0
   11.2622    3.3569    0.0000 C   0  0  0  0  0  0  0  0  0  0  0  0
   13.6621    1.9713    0.0000 C   0  0  0  0  0  0  0  0  0  0  0  0
  1 12  2  0  0  0  0
  2 24  2  0  0  0  0
  3 33  1  0  0  0  0
  4 33  2  0  0  0  0
  5  6  1  0  0  0  0
  5  9  1  0  0  0  0
  5 12  1  0  0  0  0
  6 10  1  0  0  0  0
  7  8  1  0  0  0  0
  7 11  1  0  0  0  0
  8 22  2  0  0  0  0
  9 14  1  0  0  0  0
  9 16  2  0  0  0  0
 10 11  2  0  0  0  0
 10 18  1  0  0  0  0
 11 12  1  0  0  0  0
 13 14  2  0  0  0  0
 13 15  1  0  0  0  0
 13 19  1  0  0  0  0
 15 17  2  0  0  0  0
 15 20  1  0  0  0  0
 16 17  1  0  0  0  0
 21 23  1  0  0  0  0
 21 24  1  0  0  0  0
 21 25  2  0  0  0  0
 22 24  1  0  0  0  0
 22 26  1  0  0  0  0
 23 27  2  0  0  0  0
 23 29  1  0  0  0  0
 25 28  1  0  0  0  0
 26 28  2  0  0  0  0
 27 30  1  0  0  0  0
 29 31  2  0  0  0  0
 30 32  2  0  0  0  0
 30 33  1  0  0  0  0
 31 32  1  0  0  0  0
M  END
> <Acceptable>
false

> <IC50>
0.69

$$$$

Generated by Molecular Materials Informatics

 32 35  0  0  0  0  0  0  0  0999 V2000
   -8.8000    1.3856    0.0000 S   0  0  0  0  0  0  0  0  0  0  0  0
   -9.6000    0.0000    0.0000 C   0  0  0  0  0  0  0  0  0  0  0  0
  -11.2000    0.0000    0.0000 O   0  0  0  0  0  0  0  0  0  0  0  0
   -8.8000   -1.3856    0.0000 N   0  0  0  0  0  0  0  0  0  0  0  0
   -7.2000   -1.3856    0.0000 N   0  0  0  0  0  0  0  0  0  0  0  0
   -6.4000    0.0000    0.0000 C   0  0  0  0  0  0  0  0  0  0  0  0
   -4.8000    0.0000    0.0000 C   0  0  0  0  0  0  0  0  0  0  0  0
   -4.0000   -1.3856    0.0000 C   0  0  0  0  0  0  0  0  0  0  0  0
   -2.4000   -1.3856    0.0000 C   0  0  0  0  0  0  0  0  0  0  0  0
   -1.6000    0.0000    0.0000 C   0  0  0  0  0  0  0  0  0  0  0  0
    0.0000    0.0000    0.0000 N   0  0  0  0  0  0  0  0  0  0  0  0
    0.8000    1.3856    0.0000 C   0  0  0  0  0  0  0  0  0  0  0  0
    0.0000    2.7713    0.0000 C   0  0  0  0  0  0  0  0  0  0  0  0
   -1.6000    2.7713    0.0000 C   0  0  0  0  0  0  0  0  0  0  0  0
   -2.4000    1.3856    0.0000 C   0  0  0  0  0  0  0  0  0  0  0  0
   -4.0000    1.3856    0.0000 C   0  0  0  0  0  0  0  0  0  0  0  0
    0.8000   -1.3856    0.0000 C   0  0  0  0  0  0  0  0  0  0  0  0
    0.0000   -2.7713    0.0000 N   0  0  0  0  0  0  0  0  0  0  0  0
    0.8000   -4.1569    0.0000 C   0  0  0  0  0  0  0  0  0  0  0  0
    0.0000   -5.5426    0.0000 C   0  0  0  0  0  0  0  0  0  0  0  0
    2.4000   -1.3856    0.0000 C   0  0  0  0  0  0  0  0  0  0  0  0
    3.2000   -2.7713    0.0000 C   0  0  0  0  0  0  0  0  0  0  0  0
    4.8000   -2.7713    0.0000 C   0  0  0  0  0  0  0  0  0  0  0  0
    5.6000   -1.3856    0.0000 C   0  0  0  0  0  0  0  0  0  0  0  0
    7.2000   -1.3856    0.0000 O   0  0  0  0  0  0  0  0  0  0  0  0
    8.0000   -2.7713    0.0000 C   0  0  0  0  0  0  0  0  0  0  0  0
    4.8000    0.0000    0.0000 C   0  0  0  0  0  0  0  0  0  0  0  0
    5.6000    1.3856    0.0000 O   0  0  0  0  0  0  0  0  0  0  0  0
    7.2000    1.3856    0.0000 C   0  0  0  0  0  0  0  0  0  0  0  0
    3.2000    0.0000    0.0000 C   0  0  0  0  0  0  0  0  0  0  0  0
   -7.2000    1.3856    0.0000 C   0  0  0  0  0  0  0  0  0  0  0  0
   -6.4000    2.7713    0.0000 C   0  0  0  0  0  0  0  0  0  0  0  0
  1  2  1  0  0  0  0
  1 31  1  0  0  0  0
  2  3  2  0  0  0  0
  2  4  1  0  0  0  0
  4  5  1  0  0  0  0
  5  6  2  0  0  0  0
  6  7  1  0  0  0  0
  6 31  1  0  0  0  0
  7  8  1  0  0  0  0
  7 16  2  0  0  0  0
  8  9  2  0  0  0  0
  9 10  1  0  0  0  0
 10 11  1  0  0  0  0
 10 15  2  0  0  0  0
 11 12  1  0  0  0  0
 11 17  1  0  0  0  0
 12 13  1  0  0  0  0
 13 14  1  0  0  0  0
 14 15  1  0  0  0  0
 15 16  1  0  0  0  0
 17 18  2  0  0  0  0
 17 21  1  0  0  0  0
 18 19  1  0  0  0  0
 19 20  1  0  0  0  0
 21 22  1  0  0  0  0
 21 30  2  0  0  0  0
 22 23  2  0  0  0  0
 23 24  1  0  0  0  0
 24 25  1  0  0  0  0
 24 27  2  0  0  0  0
 25 26  1  0  0  0  0
 27 28  1  0  0  0  0
 27 30  1  0  0  0  0
 28 29  1  0  0  0  0
 31 32  1  6  0  0  0
M  END
> <Acceptable>
false

> <IC50>
6.6

$$$$

Generated by Molecular Materials Informatics

 27 28  0  0  0  0  0  0  0  0999 V2000
    0.0000    0.0000    0.0000 N   0  0  0  0  0  0  0  0  0  0  0  0
   -1.6000    0.0000    0.0000 C   0  0  0  0  0  0  0  0  0  0  0  0
    0.9405    1.2944    0.0000 C   0  0  0  0  0  0  0  0  0  0  0  0
    0.4944   -1.5217    0.0000 C   0  0  0  0  0  0  0  0  0  0  0  0
   -2.0944   -1.5217    0.0000 C   0  0  0  0  0  0  0  0  0  0  0  0
   -2.5405    1.2944    0.0000 C   0  0  0  0  0  0  0  0  0  0  0  0
    2.5317    1.1272    0.0000 C   0  0  0  0  0  0  0  0  0  0  0  0
    0.2897    2.7561    0.0000 O   0  0  0  0  0  0  0  0  0  0  0  0
   -0.8000   -2.4621    0.0000 C   0  0  0  0  0  0  0  0  0  0  0  0
   -1.8897    2.7561    0.0000 O   0  0  0  0  0  0  0  0  0  0  0  0
   -4.1317    1.1272    0.0000 O   0  0  0  0  0  0  0  0  0  0  0  0
    3.4721    2.4216    0.0000 N   0  0  0  0  0  0  0  0  0  0  0  0
    3.1825   -0.3345    0.0000 C   0  0  0  0  0  0  0  0  0  0  0  0
    5.0634    2.2544    0.0000 C   0  0  0  0  0  0  0  0  0  0  0  0
    5.7142    0.7927    0.0000 C   0  0  0  0  0  0  0  0  0  0  0  0
    6.0038    3.5488    0.0000 C   0  0  0  0  0  0  0  0  0  0  0  0
    7.3054    0.6254    0.0000 C   0  0  0  0  0  0  0  0  0  0  0  0
    7.5951    3.3815    0.0000 O   0  0  0  0  0  0  0  0  0  0  0  0
    5.3531    5.0105    0.0000 O   0  0  0  0  0  0  0  0  0  0  0  0
    7.9562   -0.8362    0.0000 C   0  0  0  0  0  0  0  0  0  0  0  0
    8.5355    4.6760    0.0000 C   0  0  0  0  0  0  0  0  0  0  0  0
    7.0157   -2.1307    0.0000 C   0  0  0  0  0  0  0  0  0  0  0  0
    9.5474   -1.0035    0.0000 C   0  0  0  0  0  0  0  0  0  0  0  0
   10.1268    4.5087    0.0000 C   0  0  0  0  0  0  0  0  0  0  0  0
    7.6665   -3.5923    0.0000 C   0  0  0  0  0  0  0  0  0  0  0  0
   10.1982   -2.4651    0.0000 C   0  0  0  0  0  0  0  0  0  0  0  0
    9.2577   -3.7596    0.0000 C   0  0  0  0  0  0  0  0  0  0  0  0
  1  2  1  0  0  0  0
  1  3  1  0  0  0  0
  1  4  1  0  0  0  0
  2  5  1  0  0  0  0
  2  6  1  1  0  0  0
  3  7  1  0  0  0  0
  3  8  2  0  0  0  0
  4  9  1  0  0  0  0
  5  9  1  0  0  0  0
  6 10  1  0  0  0  0
  6 11  2  0  0  0  0
  7 12  1  0  0  0  0
  7 13  1  1  0  0  0
 12 14  1  0  0  0  0
 14 15  1  0  0  0  0
 14 16  1  6  0  0  0
 15 17  1  0  0  0  0
 16 18  1  0  0  0  0
 16 19  2  0  0  0  0
 17 20  1  0  0  0  0
 18 21  1  0  0  0  0
 20 22  2  0  0  0  0
 20 23  1  0  0  0  0
 21 24  1  0  0  0  0
 22 25  1  0  0  0  0
 23 26  2  0  0  0  0
 25 27  2  0  0  0  0
 26 27  1  0  0  0  0
M  END
> <Acceptable>
true

> <IC50>
100

$$$$

Generated by Molecular Materials Informatics

 22 22  0  0  0  0  0  0  0  0999 V2000
   -2.7713    0.0000    0.0000 O   0  0  0  0  0  0  0  0  0  0  0  0
   -1.3856    0.8000    0.0000 N   0  3  0  0  0  0  0  0  0  0  0  0
   -1.3856    2.4000    0.0000 O   0  5  0  0  0  0  0  0  0  0  0  0
    0.0000    0.0000    0.0000 C   0  0  0  0  0  0  0  0  0  0  0  0
    1.3856    0.8000    0.0000 C   0  0  0  0  0  0  0  0  0  0  0  0
    2.7713    0.0000    0.0000 C   0  0  0  0  0  0  0  0  0  0  0  0
    2.7713   -1.6000    0.0000 C   0  0  0  0  0  0  0  0  0  0  0  0
    1.3856   -2.4000    0.0000 C   0  0  0  0  0  0  0  0  0  0  0  0
    1.3856   -4.0000    0.0000 O   0  0  0  0  0  0  0  0  0  0  0  0
    0.0000   -1.6000    0.0000 C   0  0  0  0  0  0  0  0  0  0  0  0
   -1.3856   -2.4000    0.0000 O   0  0  0  0  0  0  0  0  0  0  0  0
    4.1569    0.8000    0.0000 C   0  0  0  0  0  0  0  0  0  0  0  0
    5.5426    0.0000    0.0000 C   0  0  0  0  0  0  0  0  0  0  0  0
    5.5426   -1.6000    0.0000 C   0  0  0  0  0  0  0  0  0  0  0  0
    5.5426   -3.2000    0.0000 N   0  0  0  0  0  0  0  0  0  0  0  0
    6.9282    0.8000    0.0000 C   0  0  0  0  0  0  0  0  0  0  0  0
    6.9282    2.4000    0.0000 O   0  0  0  0  0  0  0  0  0  0  0  0
    8.3138    0.0000    0.0000 N   0  0  0  0  0  0  0  0  0  0  0  0
    8.3138   -1.6000    0.0000 C   0  0  0  0  0  0  0  0  0  0  0  0
    9.6995   -2.4000    0.0000 C   0  0  0  0  0  0  0  0  0  0  0  0
    9.6995    0.8000    0.0000 C   0  0  0  0  0  0  0  0  0  0  0  0
   11.0851    0.0000    0.0000 C   0  0  0  0  0  0  0  0  0  0  0  0
  1  2  2  0  0  0  0
  2  3  1  0  0  0  0
  2  4  1  0  0  0  0
  4  5  1  0  0  0  0
  4 10  2  0  0  0  0
  5  6  2  0  0  0  0
  6  7  1  0  0  0  0
  6 12  1  0  0  0  0
  7  8  2  0  0  0  0
  8  9  1  0  0  0  0
  8 10  1  0  0  0  0
 10 11  1  0  0  0  0
 12 13  2  0  0  0  0
 13 14  1  0  0  0  0
 13 16  1  0  0  0  0
 14 15  3  0  0  0  0
 16 17  2  0  0  0  0
 16 18  1  0  0  0  0
 18 19  1  0  0  0  0
 18 21  1  0  0  0  0
 19 20  1  0  0  0  0
 21 22  1  0  0  0  0
M  CHG  2   2   1   3  -1
M  END
> <Acceptable>
true

> <IC50>
N/A

$$$$

Generated by Molecular Materials Informatics

 12 12  0  0  0  0  0  0  0  0999 V2000
   -2.4000    1.3856    0.0000 O   0  0  0  0  0  0  0  0  0  0  0  0
   -1.6000    0.0000    0.0000 C   0  0  0  0  0  0  0  0  0  0  0  0
    0.0000    0.0000    0.0000 C   0  0  0  0  0  0  0  0  0  0  0  0
    0.8000   -1.3856    0.0000 C   0  0  0  0  0  0  0  0  0  0  0  0
    2.4000   -1.3856    0.0000 C   0  0  0  0  0  0  0  0  0  0  0  0
    3.2000    0.0000    0.0000 C   0  0  0  0  0  0  0  0  0  0  0  0
    2.4000    1.3856    0.0000 C   0  0  0  0  0  0  0  0  0  0  0  0
    0.8000    1.3856    0.0000 C   0  0  0  0  0  0  0  0  0  0  0  0
   -2.4000   -1.3856    0.0000 C   0  0  0  0  0  0  0  0  0  0  0  0
   -4.0000   -1.3856    0.0000 N   0  0  0  0  0  0  0  0  0  0  0  0
   -4.8000   -2.7713    0.0000 C   0  0  0  0  0  0  0  0  0  0  0  0
   -1.6000   -2.7713    0.0000 C   0  0  0  0  0  0  0  0  0  0  0  0
  2  1  1  6  0  0  0
  2  3  1  0  0  0  0
  2  9  1  0  0  0  0
  3  4  1  0  0  0  0
  3  8  2  0  0  0  0
  4  5  2  0  0  0  0
  5  6  1  0  0  0  0
  6  7  2  0  0  0  0
  7  8  1  0  0  0  0
  9 10  1  0  0  0  0
  9 12  1  6  0  0  0
 10 11  1  0  0  0  0
M  END
> <Acceptable>
true

> <IC50>
N/A

$$$$

Generated by Molecular Materials Informatics

 19 22  0  0  0  0  0  0  0  0999 V2000
   -2.5208    1.3323    0.0000 N   0  0  0  0  0  0  0  0  0  0  0  0
   -0.9210    1.3084    0.0000 C   0  0  0  0  0  0  0  0  0  0  0  0
    0.0387    2.5886    0.0000 N   0  0  0  0  0  0  0  0  0  0  0  0
    1.5529    2.0714    0.0000 C   0  0  0  0  0  0  0  0  0  0  0  0
    1.5289    0.4716    0.0000 C   0  0  0  0  0  0  0  0  0  0  0  0
    0.0000    0.0000    0.0000 N   0  0  0  0  0  0  0  0  0  0  0  0
   -0.5845   -1.4894    0.0000 C   0  0  0  0  0  0  0  0  0  0  0  0
   -2.1845   -1.4894    0.0000 C   0  0  0  0  0  0  0  0  0  0  0  0
   -2.9845   -2.8750    0.0000 C   0  0  0  0  0  0  0  0  0  0  0  0
   -2.1845   -4.2607    0.0000 C   0  0  0  0  0  0  0  0  0  0  0  0
   -0.5845   -4.2607    0.0000 C   0  0  0  0  0  0  0  0  0  0  0  0
    0.2155   -2.8750    0.0000 C   0  0  0  0  0  0  0  0  0  0  0  0
    1.7976   -3.1135    0.0000 C   0  0  0  0  0  0  0  0  0  0  0  0
    2.9705   -2.0252    0.0000 C   0  0  0  0  0  0  0  0  0  0  0  0
    4.4120   -2.7194    0.0000 C   0  0  0  0  0  0  0  0  0  0  0  0
    5.7340   -1.8181    0.0000 C   0  0  0  0  0  0  0  0  0  0  0  0
    5.6144   -0.2226    0.0000 C   0  0  0  0  0  0  0  0  0  0  0  0
    4.1729    0.4716    0.0000 C   0  0  0  0  0  0  0  0  0  0  0  0
    2.8509   -0.4297    0.0000 C   0  0  0  0  0  0  0  0  0  0  0  0
  1  2  1  0  0  0  0
  2  3  2  0  0  0  0
  2  6  1  0  0  0  0
  3  4  1  0  0  0  0
  4  5  1  0  0  0  0
  5  6  1  1  0  0  0
  5 19  1  0  0  0  0
  6  7  1  0  0  0  0
  7  8  1  0  0  0  0
  7 12  2  0  0  0  0
  8  9  2  0  0  0  0
  9 10  1  0  0  0  0
 10 11  2  0  0  0  0
 11 12  1  0  0  0  0
 12 13  1  0  0  0  0
 13 14  1  0  0  0  0
 14 15  1  0  0  0  0
 14 19  2  0  0  0  0
 15 16  2  0  0  0  0
 16 17  1  0  0  0  0
 17 18  2  0  0  0  0
 18 19  1  0  0  0  0
M  END
> <Acceptable>
true

> <IC50>
165.95

$$$$

Generated by Molecular Materials Informatics

 30 32  0  0  0  0  0  0  0  0999 V2000
   -7.4634    0.8687    0.0000 S   0  0  0  0  0  0  0  0  0  0  0  0
   -9.0284    1.2014    0.0000 C   0  0  0  0  0  0  0  0  0  0  0  0
   -9.1957    2.7926    0.0000 C   0  0  0  0  0  0  0  0  0  0  0  0
   -7.7340    3.4434    0.0000 C   0  0  0  0  0  0  0  0  0  0  0  0
   -6.6634    2.2544    0.0000 C   0  0  0  0  0  0  0  0  0  0  0  0
   -5.0721    2.4216    0.0000 C   0  0  0  0  0  0  0  0  0  0  0  0
   -4.1317    1.1272    0.0000 C   0  0  0  0  0  0  0  0  0  0  0  0
   -2.5405    1.2944    0.0000 C   0  0  0  0  0  0  0  0  0  0  0  0
   -1.6000    0.0000    0.0000 C   0  0  0  0  0  0  0  0  0  0  0  0
    0.0000    0.0000    0.0000 N   0  0  0  0  0  0  0  0  0  0  0  0
    0.9405    1.2944    0.0000 C   0  0  0  0  0  0  0  0  0  0  0  0
    2.5317    1.1272    0.0000 C   0  0  0  0  0  0  0  0  0  0  0  0
    3.4721    2.4216    0.0000 C   0  0  0  0  0  0  0  0  0  0  0  0
    5.0634    2.2544    0.0000 C   0  0  0  0  0  0  0  0  0  0  0  0
    5.7142    0.7927    0.0000 C   0  0  0  0  0  0  0  0  0  0  0  0
    4.7737   -0.5017    0.0000 C   0  0  0  0  0  0  0  0  0  0  0  0
    3.1825   -0.3345    0.0000 C   0  0  0  0  0  0  0  0  0  0  0  0
    7.3054    0.6254    0.0000 C   0  0  0  0  0  0  0  0  0  0  0  0
    7.9562   -0.8362    0.0000 O   0  0  0  0  0  0  0  0  0  0  0  0
    8.2459    1.9199    0.0000 O   0  0  0  0  0  0  0  0  0  0  0  0
    0.4944   -1.5217    0.0000 C   0  0  0  0  0  0  0  0  0  0  0  0
   -0.8000   -2.4621    0.0000 N   0  0  0  0  0  0  0  0  0  0  0  0
   -2.0944   -1.5217    0.0000 C   0  0  0  0  0  0  0  0  0  0  0  0
    2.0161   -2.0161    0.0000 C   0  0  0  0  0  0  0  0  0  0  0  0
    2.3488   -3.5812    0.0000 C   0  0  0  0  0  0  0  0  0  0  0  0
    3.8705   -4.0756    0.0000 C   0  0  0  0  0  0  0  0  0  0  0  0
    4.2031   -5.6406    0.0000 C   0  0  0  0  0  0  0  0  0  0  0  0
   -4.7825   -0.3345    0.0000 C   0  0  0  0  0  0  0  0  0  0  0  0
   -3.8420   -1.6289    0.0000 O   0  0  0  0  0  0  0  0  0  0  0  0
   -6.3737   -0.5017    0.0000 O   0  0  0  0  0  0  0  0  0  0  0  0
  1  2  1  0  0  0  0
  1  5  1  0  0  0  0
  2  3  2  0  0  0  0
  3  4  1  0  0  0  0
  4  5  2  0  0  0  0
  5  6  1  0  0  0  0
  6  7  1  0  0  0  0
  7  8  2  0  0  0  0
  7 28  1  0  0  0  0
  8  9  1  0  0  0  0
  9 10  1  0  0  0  0
  9 23  2  0  0  0  0
 10 11  1  0  0  0  0
 10 21  1  0  0  0  0
 11 12  1  0  0  0  0
 12 13  1  0  0  0  0
 12 17  2  0  0  0  0
 13 14  2  0  0  0  0
 14 15  1  0  0  0  0
 15 16  2  0  0  0  0
 15 18  1  0  0  0  0
 16 17  1  0  0  0  0
 18 19  2  0  0  0  0
 18 20  1  0  0  0  0
 21 22  2  0  0  0  0
 21 24  1  0  0  0  0
 22 23  1  0  0  0  0
 24 25  1  0  0  0  0
 25 26  1  0  0  0  0
 26 27  1  0  0  0  0
 28 29  2  0  0  0  0
 28 30  1  0  0  0  0
M  END
> <Acceptable>
true

> <IC50>
N/A

$$$$

Generated by Molecular Materials Informatics

 33 37  0  0  0  0  0  0  0  0999 V2000
  -17.6000   -2.7713    0.0000 C   0  0  0  0  0  0  0  0  0  0  0  0
  -16.8000   -1.3856    0.0000 O   0  0  0  0  0  0  0  0  0  0  0  0
  -15.2000   -1.3856    0.0000 C   0  0  0  0  0  0  0  0  0  0  0  0
  -14.4000   -2.7713    0.0000 C   0  0  0  0  0  0  0  0  0  0  0  0
  -12.8000   -2.7713    0.0000 C   0  0  0  0  0  0  0  0  0  0  0  0
  -12.0000   -1.3856    0.0000 C   0  0  0  0  0  0  0  0  0  0  0  0
  -10.4000   -1.3856    0.0000 C   0  0  0  0  0  0  0  0  0  0  0  0
   -9.6000    0.0000    0.0000 N   0  0  0  0  0  0  0  0  0  0  0  0
   -8.0000    0.0000    0.0000 C   0  0  0  0  0  0  0  0  0  0  0  0
   -7.2000   -1.3856    0.0000 N   0  0  0  0  0  0  0  0  0  0  0  0
   -5.6000   -1.3856    0.0000 N   0  0  0  0  0  0  0  0  0  0  0  0
   -4.8000    0.0000    0.0000 C   0  0  0  0  0  0  0  0  0  0  0  0
   -3.2000    0.0000    0.0000 N   0  0  0  0  0  0  0  0  0  0  0  0
   -2.4000   -1.3856    0.0000 C   0  0  0  0  0  0  0  0  0  0  0  0
   -0.8000   -1.3856    0.0000 C   0  0  0  0  0  0  0  0  0  0  0  0
    0.0000    0.0000    0.0000 C   0  0  0  0  0  0  0  0  0  0  0  0
    1.1314   -1.1314    0.0000 C   0  0  0  0  0  0  0  0  0  0  0  0
    2.2627    0.0000    0.0000 C   0  0  0  0  0  0  0  0  0  0  0  0
    3.8627    0.0000    0.0000 O   0  0  0  0  0  0  0  0  0  0  0  0
    1.1314    1.1314    0.0000 C   0  0  0  0  0  0  0  0  0  0  0  0
   -0.8000    1.3856    0.0000 C   0  0  0  0  0  0  0  0  0  0  0  0
   -2.4000    1.3856    0.0000 C   0  0  0  0  0  0  0  0  0  0  0  0
   -5.6000    1.3856    0.0000 C   0  0  0  0  0  0  0  0  0  0  0  0
   -4.8000    2.7713    0.0000 C   0  0  0  0  0  0  0  0  0  0  0  0
   -5.6000    4.1569    0.0000 C   0  0  0  0  0  0  0  0  0  0  0  0
   -7.2000    4.1569    0.0000 C   0  0  0  0  0  0  0  0  0  0  0  0
   -8.0000    5.5426    0.0000 C   0  0  0  0  0  0  0  0  0  0  0  0
   -8.8000    6.9282    0.0000 N   0  0  0  0  0  0  0  0  0  0  0  0
   -8.0000    2.7713    0.0000 C   0  0  0  0  0  0  0  0  0  0  0  0
   -7.2000    1.3856    0.0000 C   0  0  0  0  0  0  0  0  0  0  0  0
  -12.8000    0.0000    0.0000 C   0  0  0  0  0  0  0  0  0  0  0  0
  -14.4000    0.0000    0.0000 C   0  0  0  0  0  0  0  0  0  0  0  0
  -15.2000    1.3856    0.0000 Cl  0  0  0  0  0  0  0  0  0  0  0  0
  1  2  1  0  0  0  0
  2  3  1  0  0  0  0
  3  4  1  0  0  0  0
  3 32  2  0  0  0  0
  4  5  2  0  0  0  0
  5  6  1  0  0  0  0
  6  7  1  0  0  0  0
  6 31  2  0  0  0  0
  7  8  1  0  0  0  0
  8  9  1  0  0  0  0
  9 10  1  0  0  0  0
  9 30  2  0  0  0  0
 10 11  2  0  0  0  0
 11 12  1  0  0  0  0
 12 13  1  0  0  0  0
 12 23  2  0  0  0  0
 13 14  1  0  0  0  0
 13 22  1  0  0  0  0
 14 15  1  0  0  0  0
 15 16  1  0  0  0  0
 16 17  1  0  0  0  0
 16 20  1  0  0  0  0
 16 21  1  1  0  0  0
 17 18  1  0  0  0  0
 18 19  1  1  0  0  0
 18 20  1  0  0  0  0
 21 22  1  0  0  0  0
 23 24  1  0  0  0  0
 23 30  1  0  0  0  0
 24 25  2  0  0  0  0
 25 26  1  0  0  0  0
 26 27  1  0  0  0  0
 26 29  2  0  0  0  0
 27 28  3  0  0  0  0
 29 30  1  0  0  0  0
 31 32  1  0  0  0  0
 32 33  1  0  0  0  0
M  END
> <Acceptable>
false

> <IC50>
0.04

$$$$

Generated by Molecular Materials Informatics

 43 50  0  0  0  0  0  0  0  0999 V2000
    4.5651   -1.4833    0.0000 O   0  0  0  0  0  0  0  0  0  0  0  0
    3.0434   -0.9889    0.0000 C   0  0  0  0  0  0  0  0  0  0  0  0
    2.7107    0.5762    0.0000 N   0  0  0  0  0  0  0  0  0  0  0  0
    3.6512    1.8706    0.0000 C   0  0  0  0  0  0  0  0  0  0  0  0
    2.7107    3.1650    0.0000 C   0  0  0  0  0  0  0  0  0  0  0  0
    1.1890    2.6706    0.0000 C   0  0  0  0  0  0  0  0  0  0  0  0
    1.1890    1.0706    0.0000 C   0  0  0  0  0  0  0  0  0  0  0  0
    0.0000    0.0000    0.0000 C   0  0  0  0  0  0  0  0  0  0  0  0
   -0.4944    1.5217    0.0000 O   0  0  0  0  0  0  0  0  0  0  0  0
   -1.5912    0.1672    0.0000 O   0  0  0  0  0  0  0  0  0  0  0  0
   -2.2420   -1.2944    0.0000 C   0  0  0  0  0  0  0  0  0  0  0  0
   -3.6277   -0.4944    0.0000 N   0  0  0  0  0  0  0  0  0  0  0  0
   -5.0133   -1.2944    0.0000 C   0  0  0  0  0  0  0  0  0  0  0  0
   -5.0133   -2.8944    0.0000 O   0  0  0  0  0  0  0  0  0  0  0  0
   -6.3989   -0.4944    0.0000 C   0  0  0  0  0  0  0  0  0  0  0  0
   -6.3989    1.1056    0.0000 C   0  0  0  0  0  0  0  0  0  0  0  0
   -7.7846    1.9056    0.0000 N   0  3  0  0  0  0  0  0  0  0  0  0
   -7.7846    3.5056    0.0000 C   0  0  0  0  0  0  0  0  0  0  0  0
   -9.1702    1.1056    0.0000 C   0  0  0  0  0  0  0  0  0  0  0  0
  -10.5559    1.9056    0.0000 C   0  0  0  0  0  0  0  0  0  0  0  0
  -11.9415    1.1056    0.0000 C   0  0  0  0  0  0  0  0  0  0  0  0
  -13.5238    1.3429    0.0000 C   0  0  0  0  0  0  0  0  0  0  0  0
  -14.3238   -0.0428    0.0000 N   0  0  0  0  0  0  0  0  0  0  0  0
  -13.3271   -1.2944    0.0000 C   0  0  0  0  0  0  0  0  0  0  0  0
  -13.3271   -2.8944    0.0000 C   0  0  0  0  0  0  0  0  0  0  0  0
  -11.9415   -3.6944    0.0000 C   0  0  0  0  0  0  0  0  0  0  0  0
  -10.5559   -2.8944    0.0000 C   0  0  0  0  0  0  0  0  0  0  0  0
  -10.5559   -1.2944    0.0000 C   0  0  0  0  0  0  0  0  0  0  0  0
  -11.9415   -0.4944    0.0000 C   0  0  0  0  0  0  0  0  0  0  0  0
   -9.1702   -0.4944    0.0000 C   0  0  0  0  0  0  0  0  0  0  0  0
   -7.7846   -1.2944    0.0000 C   0  0  0  0  0  0  0  0  0  0  0  0
   -3.1825   -2.5889    0.0000 C   0  0  0  0  0  0  0  0  0  0  0  0
   -1.0530   -2.3650    0.0000 C   0  0  0  0  0  0  0  0  0  0  0  0
   -1.2202   -3.9563    0.0000 O   0  0  0  0  0  0  0  0  0  0  0  0
    0.3327   -1.5650    0.0000 N   0  0  0  0  0  0  0  0  0  0  0  0
    1.8544   -2.0595    0.0000 C   0  0  0  0  0  0  0  0  0  0  0  0
    2.1870   -3.6245    0.0000 C   0  0  0  0  0  0  0  0  0  0  0  0
    3.7087   -4.1189    0.0000 C   0  0  0  0  0  0  0  0  0  0  0  0
    4.0414   -5.6840    0.0000 C   0  0  0  0  0  0  0  0  0  0  0  0
    5.5630   -6.1784    0.0000 C   0  0  0  0  0  0  0  0  0  0  0  0
    6.7521   -5.1078    0.0000 C   0  0  0  0  0  0  0  0  0  0  0  0
    6.4194   -3.5427    0.0000 C   0  0  0  0  0  0  0  0  0  0  0  0
    4.8977   -3.0483    0.0000 C   0  0  0  0  0  0  0  0  0  0  0  0
  1  2  2  0  0  0  0
  2  3  1  0  0  0  0
  2 36  1  0  0  0  0
  3  4  1  0  0  0  0
  3  7  1  0  0  0  0
  4  5  2  0  0  0  0
  5  6  1  0  0  0  0
  6  7  2  0  0  0  0
  7  8  1  0  0  0  0
  8  9  1  1  0  0  0
  8 10  1  0  0  0  0
  8 35  1  0  0  0  0
 10 11  1  0  0  0  0
 11 12  1  0  0  0  0
 11 32  1  6  0  0  0
 11 33  1  0  0  0  0
 12 13  1  0  0  0  0
 13 14  2  0  0  0  0
 13 15  1  0  0  0  0
 15 16  1  0  0  0  0
 15 31  2  0  0  0  0
 16 17  2  0  0  0  0
 17 18  1  0  0  0  0
 17 19  1  0  0  0  0
 19 20  1  0  0  0  0
 19 30  2  0  0  0  0
 20 21  2  0  0  0  0
 21 22  1  0  0  0  0
 21 29  1  0  0  0  0
 22 23  2  0  0  0  0
 23 24  1  0  0  0  0
 24 25  1  0  0  0  0
 24 29  2  0  0  0  0
 25 26  2  0  0  0  0
 26 27  1  0  0  0  0
 27 28  2  0  0  0  0
 28 29  1  0  0  0  0
 28 30  1  0  0  0  0
 30 31  1  0  0  0  0
 33 34  2  0  0  0  0
 33 35  1  0  0  0  0
 35 36  1  0  0  0  0
 36 37  1  1  0  0  0
 37 38  1  0  0  0  0
 38 39  1  0  0  0  0
 38 43  2  0  0  0  0
 39 40  2  0  0  0  0
 40 41  1  0  0  0  0
 41 42  2  0  0  0  0
 42 43  1  0  0  0  0
M  CHG  1  17   1
M  END
> <Acceptable>
true

> <IC50>
N/A

$$$$

Generated by Molecular Materials Informatics

 51 53  0  0  0  0  0  0  0  0999 V2000
   -6.6248   -2.0831    0.0000 O   0  0  0  0  0  0  0  0  0  0  0  0
   -5.0649   -2.4391    0.0000 C   0  0  0  0  0  0  0  0  0  0  0  0
   -5.0649   -4.0391    0.0000 O   0  0  0  0  0  0  0  0  0  0  0  0
   -4.3707   -5.4807    0.0000 C   0  0  0  0  0  0  0  0  0  0  0  0
   -5.6216   -6.4783    0.0000 C   0  0  0  0  0  0  0  0  0  0  0  0
   -7.1110   -5.8937    0.0000 C   0  0  0  0  0  0  0  0  0  0  0  0
   -3.1198   -6.4783    0.0000 C   0  0  0  0  0  0  0  0  0  0  0  0
   -4.5054   -7.2783    0.0000 O   0  0  0  0  0  0  0  0  0  0  0  0
   -2.8813   -8.0604    0.0000 C   0  0  0  0  0  0  0  0  0  0  0  0
   -1.5599   -6.8343    0.0000 C   0  0  0  0  0  0  0  0  0  0  0  0
   -1.5599   -8.4343    0.0000 O   0  0  0  0  0  0  0  0  0  0  0  0
    0.0000   -6.4783    0.0000 C   0  0  0  0  0  0  0  0  0  0  0  0
    0.6942   -7.9198    0.0000 C   0  0  0  0  0  0  0  0  0  0  0  0
    1.2509   -5.4807    0.0000 C   0  0  0  0  0  0  0  0  0  0  0  0
    2.5019   -6.4783    0.0000 O   0  0  0  0  0  0  0  0  0  0  0  0
    1.9451   -4.0391    0.0000 C   0  0  0  0  0  0  0  0  0  0  0  0
    3.5050   -4.3952    0.0000 C   0  0  0  0  0  0  0  0  0  0  0  0
    1.9451   -2.4391    0.0000 C   0  0  0  0  0  0  0  0  0  0  0  0
    1.2509   -0.9976    0.0000 C   0  0  0  0  0  0  0  0  0  0  0  0
    2.8465   -0.8780    0.0000 O   0  0  0  0  0  0  0  0  0  0  0  0
    1.7225    0.5313    0.0000 C   0  0  0  0  0  0  0  0  0  0  0  0
    0.0000    0.0000    0.0000 C   0  0  0  0  0  0  0  0  0  0  0  0
    0.6942    1.4416    0.0000 O   0  0  0  0  0  0  0  0  0  0  0  0
    2.2897    1.5611    0.0000 C   0  0  0  0  0  0  0  0  0  0  0  0
    3.1911    0.2391    0.0000 O   0  0  0  0  0  0  0  0  0  0  0  0
    4.7866    0.3587    0.0000 C   0  0  0  0  0  0  0  0  0  0  0  0
    5.6879   -0.9633    0.0000 C   0  0  0  0  0  0  0  0  0  0  0  0
    5.4808    1.8003    0.0000 C   0  0  0  0  0  0  0  0  0  0  0  0
    4.5795    3.1222    0.0000 C   0  0  0  0  0  0  0  0  0  0  0  0
    5.2737    4.5638    0.0000 N   0  0  0  0  0  0  0  0  0  0  0  0
    4.3724    5.8858    0.0000 C   0  0  0  0  0  0  0  0  0  0  0  0
    6.8692    4.6834    0.0000 C   0  0  0  0  0  0  0  0  0  0  0  0
    2.9840    3.0027    0.0000 C   0  0  0  0  0  0  0  0  0  0  0  0
    2.0826    4.3247    0.0000 O   0  0  0  0  0  0  0  0  0  0  0  0
   -1.5599    0.3560    0.0000 C   0  0  0  0  0  0  0  0  0  0  0  0
   -1.5599    1.9560    0.0000 C   0  0  0  0  0  0  0  0  0  0  0  0
   -3.1198    0.0000    0.0000 C   0  0  0  0  0  0  0  0  0  0  0  0
   -3.8140    1.4415    0.0000 O   0  0  0  0  0  0  0  0  0  0  0  0
   -5.2724    2.0996    0.0000 C   0  0  0  0  0  0  0  0  0  0  0  0
   -6.5715    1.1656    0.0000 O   0  0  0  0  0  0  0  0  0  0  0  0
   -8.0299    1.8237    0.0000 C   0  0  0  0  0  0  0  0  0  0  0  0
   -9.3290    0.8897    0.0000 C   0  0  0  0  0  0  0  0  0  0  0  0
   -8.1892    3.4157    0.0000 C   0  0  0  0  0  0  0  0  0  0  0  0
   -9.6476    4.0738    0.0000 O   0  0  0  0  0  0  0  0  0  0  0  0
   -6.8901    4.3497    0.0000 C   0  0  0  0  0  0  0  0  0  0  0  0
   -8.0355    5.4669    0.0000 O   0  0  0  0  0  0  0  0  0  0  0  0
   -7.6407    7.0174    0.0000 C   0  0  0  0  0  0  0  0  0  0  0  0
   -5.9888    5.6717    0.0000 C   0  0  0  0  0  0  0  0  0  0  0  0
   -5.4317    3.6917    0.0000 C   0  0  0  0  0  0  0  0  0  0  0  0
   -4.3707   -0.9976    0.0000 C   0  0  0  0  0  0  0  0  0  0  0  0
   -5.6216    0.0000    0.0000 C   0  0  0  0  0  0  0  0  0  0  0  0
  1  2  2  0  0  0  0
  2  3  1  0  0  0  0
  2 50  1  0  0  0  0
  3  4  1  0  0  0  0
  4  5  1  1  0  0  0
  4  7  1  0  0  0  0
  5  6  1  0  0  0  0
  7  8  1  1  0  0  0
  7  9  1  0  0  0  0
  7 10  1  0  0  0  0
 10 11  1  1  0  0  0
 10 12  1  0  0  0  0
 12 13  1  1  0  0  0
 12 14  1  0  0  0  0
 14 15  2  0  0  0  0
 14 16  1  0  0  0  0
 16 17  1  1  0  0  0
 16 18  1  0  0  0  0
 18 19  1  0  0  0  0
 19 20  1  1  0  0  0
 19 21  1  0  0  0  0
 19 22  1  0  0  0  0
 22 23  1  1  0  0  0
 22 35  1  0  0  0  0
 24 23  1  1  0  0  0
 24 25  1  0  0  0  0
 24 33  1  0  0  0  0
 25 26  1  0  0  0  0
 26 27  1  1  0  0  0
 26 28  1  0  0  0  0
 28 29  1  0  0  0  0
 29 30  1  1  0  0  0
 29 33  1  0  0  0  0
 30 31  1  0  0  0  0
 30 32  1  0  0  0  0
 33 34  1  1  0  0  0
 35 36  1  1  0  0  0
 35 37  1  0  0  0  0
 37 38  1  1  0  0  0
 37 50  1  0  0  0  0
 39 38  1  6  0  0  0
 39 40  1  0  0  0  0
 39 49  1  0  0  0  0
 40 41  1  0  0  0  0
 41 42  1  6  0  0  0
 41 43  1  0  0  0  0
 43 44  1  6  0  0  0
 43 45  1  0  0  0  0
 45 46  1  0  0  0  0
 45 48  1  1  0  0  0
 45 49  1  0  0  0  0
 46 47  1  0  0  0  0
 50 51  1  1  0  0  0
M  END
> <Acceptable>
true

> <IC50>
72

$$$$

Generated by Molecular Materials Informatics

 51 53  0  0  0  0  0  0  0  0999 V2000
   -6.6248   -2.0831    0.0000 O   0  0  0  0  0  0  0  0  0  0  0  0
   -5.0649   -2.4391    0.0000 C   0  0  0  0  0  0  0  0  0  0  0  0
   -5.0649   -4.0391    0.0000 O   0  0  0  0  0  0  0  0  0  0  0  0
   -4.3707   -5.4807    0.0000 C   0  0  0  0  0  0  0  0  0  0  0  0
   -5.6216   -6.4783    0.0000 C   0  0  0  0  0  0  0  0  0  0  0  0
   -7.1110   -5.8937    0.0000 C   0  0  0  0  0  0  0  0  0  0  0  0
   -3.1198   -6.4783    0.0000 C   0  0  0  0  0  0  0  0  0  0  0  0
   -4.5054   -7.2783    0.0000 O   0  0  0  0  0  0  0  0  0  0  0  0
   -2.8813   -8.0604    0.0000 C   0  0  0  0  0  0  0  0  0  0  0  0
   -1.5599   -6.8343    0.0000 C   0  0  0  0  0  0  0  0  0  0  0  0
   -1.5599   -8.4343    0.0000 O   0  0  0  0  0  0  0  0  0  0  0  0
    0.0000   -6.4783    0.0000 C   0  0  0  0  0  0  0  0  0  0  0  0
    0.6942   -7.9198    0.0000 C   0  0  0  0  0  0  0  0  0  0  0  0
    1.2509   -5.4807    0.0000 C   0  0  0  0  0  0  0  0  0  0  0  0
    2.5019   -6.4783    0.0000 N   0  0  0  0  0  0  0  0  0  0  0  0
    1.9451   -4.0391    0.0000 C   0  0  0  0  0  0  0  0  0  0  0  0
    3.5050   -4.3952    0.0000 C   0  0  0  0  0  0  0  0  0  0  0  0
    1.9451   -2.4391    0.0000 C   0  0  0  0  0  0  0  0  0  0  0  0
    1.2509   -0.9976    0.0000 C   0  0  0  0  0  0  0  0  0  0  0  0
    2.8465   -0.8780    0.0000 O   0  0  0  0  0  0  0  0  0  0  0  0
    1.7225    0.5313    0.0000 C   0  0  0  0  0  0  0  0  0  0  0  0
    0.0000    0.0000    0.0000 C   0  0  0  0  0  0  0  0  0  0  0  0
    0.6942    1.4416    0.0000 O   0  0  0  0  0  0  0  0  0  0  0  0
    2.2897    1.5611    0.0000 C   0  0  0  0  0  0  0  0  0  0  0  0
    3.1911    0.2391    0.0000 O   0  0  0  0  0  0  0  0  0  0  0  0
    4.7866    0.3587    0.0000 C   0  0  0  0  0  0  0  0  0  0  0  0
    5.6879   -0.9633    0.0000 C   0  0  0  0  0  0  0  0  0  0  0  0
    5.4808    1.8003    0.0000 C   0  0  0  0  0  0  0  0  0  0  0  0
    4.5795    3.1222    0.0000 C   0  0  0  0  0  0  0  0  0  0  0  0
    5.2737    4.5638    0.0000 N   0  0  0  0  0  0  0  0  0  0  0  0
    4.3724    5.8858    0.0000 C   0  0  0  0  0  0  0  0  0  0  0  0
    6.8692    4.6834    0.0000 C   0  0  0  0  0  0  0  0  0  0  0  0
    2.9840    3.0027    0.0000 C   0  0  0  0  0  0  0  0  0  0  0  0
    2.0826    4.3247    0.0000 O   0  0  0  0  0  0  0  0  0  0  0  0
   -1.5599    0.3560    0.0000 C   0  0  0  0  0  0  0  0  0  0  0  0
   -1.5599    1.9560    0.0000 C   0  0  0  0  0  0  0  0  0  0  0  0
   -3.1198    0.0000    0.0000 C   0  0  0  0  0  0  0  0  0  0  0  0
   -3.8140    1.4415    0.0000 O   0  0  0  0  0  0  0  0  0  0  0  0
   -5.2724    2.0996    0.0000 C   0  0  0  0  0  0  0  0  0  0  0  0
   -6.5715    1.1656    0.0000 O   0  0  0  0  0  0  0  0  0  0  0  0
   -8.0299    1.8237    0.0000 C   0  0  0  0  0  0  0  0  0  0  0  0
   -9.3290    0.8897    0.0000 C   0  0  0  0  0  0  0  0  0  0  0  0
   -8.1892    3.4157    0.0000 C   0  0  0  0  0  0  0  0  0  0  0  0
   -9.6476    4.0738    0.0000 O   0  0  0  0  0  0  0  0  0  0  0  0
   -6.8901    4.3497    0.0000 C   0  0  0  0  0  0  0  0  0  0  0  0
   -8.0355    5.4669    0.0000 O   0  0  0  0  0  0  0  0  0  0  0  0
   -7.6407    7.0174    0.0000 C   0  0  0  0  0  0  0  0  0  0  0  0
   -5.9888    5.6717    0.0000 C   0  0  0  0  0  0  0  0  0  0  0  0
   -5.4317    3.6917    0.0000 C   0  0  0  0  0  0  0  0  0  0  0  0
   -4.3707   -0.9976    0.0000 C   0  0  0  0  0  0  0  0  0  0  0  0
   -5.6216    0.0000    0.0000 C   0  0  0  0  0  0  0  0  0  0  0  0
  1  2  2  0  0  0  0
  2  3  1  0  0  0  0
  2 50  1  0  0  0  0
  3  4  1  0  0  0  0
  4  5  1  1  0  0  0
  4  7  1  0  0  0  0
  5  6  1  0  0  0  0
  7  8  1  0  0  0  0
  7  9  1  1  0  0  0
  7 10  1  0  0  0  0
 10 11  1  1  0  0  0
 10 12  1  0  0  0  0
 12 13  1  6  0  0  0
 12 14  1  0  0  0  0
 14 15  1  6  0  0  0
 14 16  1  0  0  0  0
 16 17  1  1  0  0  0
 16 18  1  0  0  0  0
 18 19  1  0  0  0  0
 19 20  1  1  0  0  0
 19 21  1  0  0  0  0
 19 22  1  0  0  0  0
 22 23  1  1  0  0  0
 22 35  1  0  0  0  0
 24 23  1  1  0  0  0
 24 25  1  0  0  0  0
 24 33  1  0  0  0  0
 25 26  1  0  0  0  0
 26 27  1  1  0  0  0
 26 28  1  0  0  0  0
 28 29  1  0  0  0  0
 29 30  1  1  0  0  0
 29 33  1  0  0  0  0
 30 31  1  0  0  0  0
 30 32  1  0  0  0  0
 33 34  1  6  0  0  0
 35 36  1  6  0  0  0
 35 37  1  0  0  0  0
 37 38  1  1  0  0  0
 37 50  1  0  0  0  0
 39 38  1  6  0  0  0
 39 40  1  0  0  0  0
 39 49  1  0  0  0  0
 40 41  1  0  0  0  0
 41 42  1  1  0  0  0
 41 43  1  0  0  0  0
 43 44  1  6  0  0  0
 43 45  1  0  0  0  0
 45 46  1  0  0  0  0
 45 48  1  1  0  0  0
 45 49  1  0  0  0  0
 46 47  1  0  0  0  0
 50 51  1  6  0  0  0
M  END
> <Acceptable>
true

> <IC50>
273.9

$$$$

Generated by Molecular Materials Informatics

 21 24  0  0  0  0  0  0  0  0999 V2000
    2.7713    3.2000    0.0000 Cl  0  0  0  0  0  0  0  0  0  0  0  0
    1.3856    2.4000    0.0000 C   0  0  0  0  0  0  0  0  0  0  0  0
    0.0000    3.2000    0.0000 C   0  0  0  0  0  0  0  0  0  0  0  0
   -1.3856    2.4000    0.0000 C   0  0  0  0  0  0  0  0  0  0  0  0
   -1.3856    0.8000    0.0000 C   0  0  0  0  0  0  0  0  0  0  0  0
   -2.8750    0.2155    0.0000 N   0  0  0  0  0  0  0  0  0  0  0  0
   -4.1834    1.1364    0.0000 C   0  0  0  0  0  0  0  0  0  0  0  0
   -5.4636    0.1767    0.0000 N   0  0  0  0  0  0  0  0  0  0  0  0
   -4.9465   -1.3374    0.0000 N   0  0  0  0  0  0  0  0  0  0  0  0
   -3.3466   -1.3135    0.0000 C   0  0  0  0  0  0  0  0  0  0  0  0
   -2.4453   -2.6354    0.0000 C   0  0  0  0  0  0  0  0  0  0  0  0
   -0.8498   -2.7550    0.0000 N   0  0  0  0  0  0  0  0  0  0  0  0
    0.2385   -1.5821    0.0000 C   0  0  0  0  0  0  0  0  0  0  0  0
    0.0000    0.0000    0.0000 C   0  0  0  0  0  0  0  0  0  0  0  0
    1.3856    0.8000    0.0000 C   0  0  0  0  0  0  0  0  0  0  0  0
    1.7674   -2.0537    0.0000 C   0  0  0  0  0  0  0  0  0  0  0  0
    2.1234   -3.6136    0.0000 C   0  0  0  0  0  0  0  0  0  0  0  0
    3.6523   -4.0852    0.0000 C   0  0  0  0  0  0  0  0  0  0  0  0
    4.8252   -2.9970    0.0000 C   0  0  0  0  0  0  0  0  0  0  0  0
    4.4692   -1.4371    0.0000 C   0  0  0  0  0  0  0  0  0  0  0  0
    2.9403   -0.9655    0.0000 C   0  0  0  0  0  0  0  0  0  0  0  0
  1  2  1  0  0  0  0
  2  3  1  0  0  0  0
  2 15  2  0  0  0  0
  3  4  2  0  0  0  0
  4  5  1  0  0  0  0
  5  6  1  0  0  0  0
  5 14  2  0  0  0  0
  6  7  1  0  0  0  0
  6 10  1  0  0  0  0
  7  8  2  0  0  0  0
  8  9  1  0  0  0  0
  9 10  2  0  0  0  0
 10 11  1  0  0  0  0
 11 12  1  0  0  0  0
 12 13  2  0  0  0  0
 13 14  1  0  0  0  0
 13 16  1  0  0  0  0
 14 15  1  0  0  0  0
 16 17  1  0  0  0  0
 16 21  2  0  0  0  0
 17 18  2  0  0  0  0
 18 19  1  0  0  0  0
 19 20  2  0  0  0  0
 20 21  1  0  0  0  0
M  END
> <Acceptable>
true

> <IC50>
N/A

$$$$

Generated by Molecular Materials Informatics

 29 32  0  0  0  0  0  0  0  0999 V2000
  -15.2000    1.3856    0.0000 Cl  0  0  0  0  0  0  0  0  0  0  0  0
  -14.4000    0.0000    0.0000 C   0  0  0  0  0  0  0  0  0  0  0  0
  -12.8000    0.0000    0.0000 C   0  0  0  0  0  0  0  0  0  0  0  0
  -12.0000   -1.3856    0.0000 N   0  0  0  0  0  0  0  0  0  0  0  0
  -12.8000   -2.7713    0.0000 C   0  0  0  0  0  0  0  0  0  0  0  0
  -14.4000   -2.7713    0.0000 C   0  0  0  0  0  0  0  0  0  0  0  0
  -15.2000   -4.1569    0.0000 Cl  0  0  0  0  0  0  0  0  0  0  0  0
  -10.4000   -1.3856    0.0000 C   0  0  0  0  0  0  0  0  0  0  0  0
   -9.6000   -2.7713    0.0000 O   0  0  0  0  0  0  0  0  0  0  0  0
   -9.6000    0.0000    0.0000 O   0  0  0  0  0  0  0  0  0  0  0  0
   -8.0000    0.0000    0.0000 C   0  0  0  0  0  0  0  0  0  0  0  0
   -7.2000   -1.3856    0.0000 C   0  0  0  0  0  0  0  0  0  0  0  0
   -5.6000   -1.3856    0.0000 C   0  0  0  0  0  0  0  0  0  0  0  0
   -4.8000    0.0000    0.0000 C   0  0  0  0  0  0  0  0  0  0  0  0
   -5.6000    1.3856    0.0000 C   0  0  0  0  0  0  0  0  0  0  0  0
   -7.2000    1.3856    0.0000 C   0  0  0  0  0  0  0  0  0  0  0  0
   -4.8000    2.7713    0.0000 C   0  0  0  0  0  0  0  0  0  0  0  0
   -3.2000    2.7713    0.0000 C   0  0  0  0  0  0  0  0  0  0  0  0
   -2.4000    1.3856    0.0000 C   0  0  0  0  0  0  0  0  0  0  0  0
   -0.8000    1.3856    0.0000 C   0  0  0  0  0  0  0  0  0  0  0  0
    0.2706    2.5747    0.0000 C   0  0  0  0  0  0  0  0  0  0  0  0
    1.7323    1.9239    0.0000 C   0  0  0  0  0  0  0  0  0  0  0  0
    1.5650    0.3327    0.0000 C   0  0  0  0  0  0  0  0  0  0  0  0
    2.7541   -0.7380    0.0000 O   0  0  0  0  0  0  0  0  0  0  0  0
    0.0000    0.0000    0.0000 C   0  0  0  0  0  0  0  0  0  0  0  0
    0.9405   -1.2944    0.0000 C   0  0  0  0  0  0  0  0  0  0  0  0
   -0.8000   -1.3856    0.0000 C   0  0  0  0  0  0  0  0  0  0  0  0
   -2.4000   -1.3856    0.0000 C   0  0  0  0  0  0  0  0  0  0  0  0
   -3.2000    0.0000    0.0000 C   0  0  0  0  0  0  0  0  0  0  0  0
  1  2  1  0  0  0  0
  2  3  1  0  0  0  0
  3  4  1  0  0  0  0
  4  5  1  0  0  0  0
  4  8  1  0  0  0  0
  5  6  1  0  0  0  0
  6  7  1  0  0  0  0
  8  9  2  0  0  0  0
  8 10  1  0  0  0  0
 10 11  1  0  0  0  0
 11 12  1  0  0  0  0
 11 16  2  0  0  0  0
 12 13  2  0  0  0  0
 13 14  1  0  0  0  0
 14 15  2  0  0  0  0
 29 14  1  6  0  0  0
 15 16  1  0  0  0  0
 15 17  1  0  0  0  0
 17 18  1  0  0  0  0
 19 18  1  1  0  0  0
 19 20  1  0  0  0  0
 19 29  1  0  0  0  0
 20 21  1  6  0  0  0
 20 25  1  0  0  0  0
 21 22  1  0  0  0  0
 22 23  1  0  0  0  0
 23 24  1  6  0  0  0
 23 25  1  0  0  0  0
 25 26  1  6  0  0  0
 25 27  1  0  0  0  0
 27 28  1  0  0  0  0
 28 29  1  0  0  0  0
M  END
> <Acceptable>
true

> <IC50>
N/A

$$$$

Generated by Molecular Materials Informatics

 21 24  0  0  0  0  0  0  0  0999 V2000
   -2.7541   -0.7380    0.0000 O   0  0  0  0  0  0  0  0  0  0  0  0
   -3.1179    2.7239    0.0000 O   0  0  0  0  0  0  0  0  0  0  0  0
    9.6000    0.0000    0.0000 O   0  0  0  0  0  0  0  0  0  0  0  0
    0.0000    0.0000    0.0000 C   0  0  0  0  0  0  0  0  0  0  0  0
    0.8000    1.3856    0.0000 C   0  0  0  0  0  0  0  0  0  0  0  0
    2.4000    1.3856    0.0000 C   0  0  0  0  0  0  0  0  0  0  0  0
    3.2000    0.0000    0.0000 C   0  0  0  0  0  0  0  0  0  0  0  0
   -1.5650    0.3327    0.0000 C   0  0  0  0  0  0  0  0  0  0  0  0
    0.8000   -1.3856    0.0000 C   0  0  0  0  0  0  0  0  0  0  0  0
   -0.2706    2.5747    0.0000 C   0  0  0  0  0  0  0  0  0  0  0  0
   -1.7323    1.9239    0.0000 C   0  0  0  0  0  0  0  0  0  0  0  0
    2.4000   -1.3856    0.0000 C   0  0  0  0  0  0  0  0  0  0  0  0
    3.2000    2.7713    0.0000 C   0  0  0  0  0  0  0  0  0  0  0  0
   -0.9405   -1.2944    0.0000 C   0  0  0  0  0  0  0  0  0  0  0  0
    4.8000    0.0000    0.0000 C   0  0  0  0  0  0  0  0  0  0  0  0
    4.8000    2.7713    0.0000 C   0  0  0  0  0  0  0  0  0  0  0  0
    5.6000    1.3856    0.0000 C   0  0  0  0  0  0  0  0  0  0  0  0
    5.6000   -1.3856    0.0000 C   0  0  0  0  0  0  0  0  0  0  0  0
    7.2000    1.3856    0.0000 C   0  0  0  0  0  0  0  0  0  0  0  0
    7.2000   -1.3856    0.0000 C   0  0  0  0  0  0  0  0  0  0  0  0
    8.0000    0.0000    0.0000 C   0  0  0  0  0  0  0  0  0  0  0  0
  8  1  1  1  0  0  0
 11  2  1  6  0  0  0
  3 21  1  0  0  0  0
  4  5  1  0  0  0  0
  4  8  1  0  0  0  0
  4  9  1  0  0  0  0
  4 14  1  1  0  0  0
  5  6  1  0  0  0  0
  5 10  1  1  0  0  0
  6  7  1  0  0  0  0
  6 13  1  6  0  0  0
  7 12  1  1  0  0  0
  7 15  1  0  0  0  0
  8 11  1  0  0  0  0
  9 12  1  0  0  0  0
 10 11  1  0  0  0  0
 13 16  1  0  0  0  0
 15 17  2  0  0  0  0
 15 18  1  0  0  0  0
 16 17  1  0  0  0  0
 17 19  1  0  0  0  0
 18 20  2  0  0  0  0
 19 21  2  0  0  0  0
 20 21  1  0  0  0  0
M  END
> <Acceptable>
false

> <IC50>
>0.001

$$$$

Generated by Molecular Materials Informatics

 20 23  0  0  0  0  0  0  0  0999 V2000
   -2.7541   -0.7380    0.0000 O   0  0  0  0  0  0  0  0  0  0  0  0
    9.6000    0.0000    0.0000 O   0  0  0  0  0  0  0  0  0  0  0  0
    0.8000    1.3856    0.0000 C   0  0  0  0  0  0  0  0  0  0  0  0
    0.0000    0.0000    0.0000 C   0  0  0  0  0  0  0  0  0  0  0  0
    2.4000    1.3856    0.0000 C   0  0  0  0  0  0  0  0  0  0  0  0
    3.2000    0.0000    0.0000 C   0  0  0  0  0  0  0  0  0  0  0  0
    0.8000   -1.3856    0.0000 C   0  0  0  0  0  0  0  0  0  0  0  0
   -0.2706    2.5747    0.0000 C   0  0  0  0  0  0  0  0  0  0  0  0
    2.4000   -1.3856    0.0000 C   0  0  0  0  0  0  0  0  0  0  0  0
    3.2000    2.7713    0.0000 C   0  0  0  0  0  0  0  0  0  0  0  0
   -1.5650    0.3327    0.0000 C   0  0  0  0  0  0  0  0  0  0  0  0
   -1.7323    1.9239    0.0000 C   0  0  0  0  0  0  0  0  0  0  0  0
   -0.9405   -1.2944    0.0000 C   0  0  0  0  0  0  0  0  0  0  0  0
    4.8000    0.0000    0.0000 C   0  0  0  0  0  0  0  0  0  0  0  0
    4.8000    2.7713    0.0000 C   0  0  0  0  0  0  0  0  0  0  0  0
    5.6000    1.3856    0.0000 C   0  0  0  0  0  0  0  0  0  0  0  0
    5.6000   -1.3856    0.0000 C   0  0  0  0  0  0  0  0  0  0  0  0
    7.2000    1.3856    0.0000 C   0  0  0  0  0  0  0  0  0  0  0  0
    7.2000   -1.3856    0.0000 C   0  0  0  0  0  0  0  0  0  0  0  0
    8.0000    0.0000    0.0000 C   0  0  0  0  0  0  0  0  0  0  0  0
  1 11  2  0  0  0  0
  2 20  1  0  0  0  0
  3  4  1  0  0  0  0
  3  5  1  0  0  0  0
  3  8  1  1  0  0  0
  4  7  1  0  0  0  0
  4 11  1  0  0  0  0
  4 13  1  1  0  0  0
  5  6  1  0  0  0  0
  5 10  1  6  0  0  0
  6  9  1  1  0  0  0
  6 14  1  0  0  0  0
  7  9  1  0  0  0  0
  8 12  1  0  0  0  0
 10 15  1  0  0  0  0
 11 12  1  0  0  0  0
 14 16  2  0  0  0  0
 14 17  1  0  0  0  0
 15 16  1  0  0  0  0
 16 18  1  0  0  0  0
 17 19  2  0  0  0  0
 18 20  2  0  0  0  0
 19 20  1  0  0  0  0
M  END
> <Acceptable>
false

> <IC50>
>0.001

$$$$

Generated by Molecular Materials Informatics

 24 27  0  0  0  0  0  0  0  0999 V2000
  -10.4000   -1.3856    0.0000 S   0  0  0  0  0  0  0  0  0  0  0  0
    2.7541   -0.7380    0.0000 O   0  0  0  0  0  0  0  0  0  0  0  0
   -9.6000    0.0000    0.0000 O   0  0  0  0  0  0  0  0  0  0  0  0
   -9.0144   -2.1856    0.0000 O   0  0  0  0  0  0  0  0  0  0  0  0
  -11.7856   -0.5856    0.0000 O   0  0  0  0  0  0  0  0  0  0  0  0
  -11.2000   -2.7713    0.0000 O   0  0  0  0  0  0  0  0  0  0  0  0
   -0.8000    1.3856    0.0000 C   0  0  0  0  0  0  0  0  0  0  0  0
    0.0000    0.0000    0.0000 C   0  0  0  0  0  0  0  0  0  0  0  0
   -2.4000    1.3856    0.0000 C   0  0  0  0  0  0  0  0  0  0  0  0
   -3.2000    0.0000    0.0000 C   0  0  0  0  0  0  0  0  0  0  0  0
   -0.8000   -1.3856    0.0000 C   0  0  0  0  0  0  0  0  0  0  0  0
    0.2706    2.5747    0.0000 C   0  0  0  0  0  0  0  0  0  0  0  0
   -2.4000   -1.3856    0.0000 C   0  0  0  0  0  0  0  0  0  0  0  0
   -3.2000    2.7713    0.0000 C   0  0  0  0  0  0  0  0  0  0  0  0
    1.5650    0.3327    0.0000 C   0  0  0  0  0  0  0  0  0  0  0  0
    1.7323    1.9239    0.0000 C   0  0  0  0  0  0  0  0  0  0  0  0
    0.9405   -1.2944    0.0000 C   0  0  0  0  0  0  0  0  0  0  0  0
   -4.8000    0.0000    0.0000 C   0  0  0  0  0  0  0  0  0  0  0  0
   -4.8000    2.7713    0.0000 C   0  0  0  0  0  0  0  0  0  0  0  0
   -5.6000    1.3856    0.0000 C   0  0  0  0  0  0  0  0  0  0  0  0
   -5.6000   -1.3856    0.0000 C   0  0  0  0  0  0  0  0  0  0  0  0
   -7.2000    1.3856    0.0000 C   0  0  0  0  0  0  0  0  0  0  0  0
   -7.2000   -1.3856    0.0000 C   0  0  0  0  0  0  0  0  0  0  0  0
   -8.0000    0.0000    0.0000 C   0  0  0  0  0  0  0  0  0  0  0  0
  1  3  1  0  0  0  0
  1  4  2  0  0  0  0
  1  5  2  0  0  0  0
  1  6  1  0  0  0  0
  2 15  2  0  0  0  0
  3 24  1  0  0  0  0
  7  8  1  0  0  0  0
  7  9  1  0  0  0  0
  7 12  1  6  0  0  0
  8 11  1  0  0  0  0
  8 15  1  0  0  0  0
  8 17  1  6  0  0  0
  9 10  1  0  0  0  0
  9 14  1  1  0  0  0
 10 13  1  6  0  0  0
 10 18  1  0  0  0  0
 11 13  1  0  0  0  0
 12 16  1  0  0  0  0
 14 19  1  0  0  0  0
 15 16  1  0  0  0  0
 18 20  2  0  0  0  0
 18 21  1  0  0  0  0
 19 20  1  0  0  0  0
 20 22  1  0  0  0  0
 21 23  2  0  0  0  0
 22 24  2  0  0  0  0
 23 24  1  0  0  0  0
M  END
> <Acceptable>
false

> <IC50>
>0.01

$$$$

Generated by Molecular Materials Informatics

 19 19  0  0  0  0  0  0  0  0999 V2000
   -3.2000    2.7713    0.0000 Cl  0  0  0  0  0  0  0  0  0  0  0  0
   -2.4000    1.3856    0.0000 C   0  0  0  0  0  0  0  0  0  0  0  0
   -3.2000    0.0000    0.0000 C   0  0  0  0  0  0  0  0  0  0  0  0
   -4.8000    0.0000    0.0000 O   0  0  0  0  0  0  0  0  0  0  0  0
   -5.6000   -1.3856    0.0000 C   0  0  0  0  0  0  0  0  0  0  0  0
   -7.2000   -1.3856    0.0000 C   0  0  0  0  0  0  0  0  0  0  0  0
   -8.0000    0.0000    0.0000 O   0  0  0  0  0  0  0  0  0  0  0  0
   -8.0000   -2.7713    0.0000 O   0  0  0  0  0  0  0  0  0  0  0  0
   -2.4000   -1.3856    0.0000 C   0  0  0  0  0  0  0  0  0  0  0  0
   -0.8000   -1.3856    0.0000 C   0  0  0  0  0  0  0  0  0  0  0  0
    0.0000    0.0000    0.0000 C   0  0  0  0  0  0  0  0  0  0  0  0
   -0.8000    1.3856    0.0000 C   0  0  0  0  0  0  0  0  0  0  0  0
    0.0000    2.7713    0.0000 Cl  0  0  0  0  0  0  0  0  0  0  0  0
    1.6000    0.0000    0.0000 C   0  0  0  0  0  0  0  0  0  0  0  0
    2.4000    1.3856    0.0000 O   0  0  0  0  0  0  0  0  0  0  0  0
    2.4000   -1.3856    0.0000 C   0  0  0  0  0  0  0  0  0  0  0  0
    1.6000   -2.7713    0.0000 C   0  0  0  0  0  0  0  0  0  0  0  0
    4.0000   -1.3856    0.0000 C   0  0  0  0  0  0  0  0  0  0  0  0
    4.8000   -2.7713    0.0000 C   0  0  0  0  0  0  0  0  0  0  0  0
  1  2  1  0  0  0  0
  2  3  1  0  0  0  0
  2 12  2  0  0  0  0
  3  4  1  0  0  0  0
  3  9  2  0  0  0  0
  4  5  1  0  0  0  0
  5  6  1  0  0  0  0
  6  7  2  0  0  0  0
  6  8  1  0  0  0  0
  9 10  1  0  0  0  0
 10 11  2  0  0  0  0
 11 12  1  0  0  0  0
 11 14  1  0  0  0  0
 12 13  1  0  0  0  0
 14 15  2  0  0  0  0
 14 16  1  0  0  0  0
 16 17  2  0  0  0  0
 16 18  1  0  0  0  0
 18 19  1  0  0  0  0
M  END
> <Acceptable>
true

> <IC50>
N/A

$$$$

Generated by Molecular Materials Informatics

 14 13  0  0  0  0  0  0  0  0999 V2000
    1.3856   -2.4000    0.0000 O   0  0  0  0  0  0  0  0  0  0  0  0
    1.3856   -0.8000    0.0000 C   0  0  0  0  0  0  0  0  0  0  0  0
    0.0000    0.0000    0.0000 C   0  0  0  0  0  0  0  0  0  0  0  0
   -1.3856   -0.8000    0.0000 N   0  0  0  0  0  0  0  0  0  0  0  0
   -2.7713    0.0000    0.0000 C   0  0  0  0  0  0  0  0  0  0  0  0
   -4.1569   -0.8000    0.0000 C   0  0  0  0  0  0  0  0  0  0  0  0
   -5.5426    0.0000    0.0000 N   0  0  0  0  0  0  0  0  0  0  0  0
   -6.9282   -0.8000    0.0000 C   0  0  0  0  0  0  0  0  0  0  0  0
   -6.9282   -2.4000    0.0000 C   0  0  0  0  0  0  0  0  0  0  0  0
   -8.3138   -3.2000    0.0000 O   0  0  0  0  0  0  0  0  0  0  0  0
   -8.3138    0.0000    0.0000 C   0  0  0  0  0  0  0  0  0  0  0  0
   -9.6995   -0.8000    0.0000 C   0  0  0  0  0  0  0  0  0  0  0  0
    0.0000    1.6000    0.0000 C   0  0  0  0  0  0  0  0  0  0  0  0
    1.3856    2.4000    0.0000 C   0  0  0  0  0  0  0  0  0  0  0  0
  1  2  1  0  0  0  0
  2  3  1  0  0  0  0
  3  4  1  0  0  0  0
  3 13  1  1  0  0  0
  4  5  1  0  0  0  0
  5  6  1  0  0  0  0
  6  7  1  0  0  0  0
  7  8  1  0  0  0  0
  8  9  1  6  0  0  0
  8 11  1  0  0  0  0
  9 10  1  0  0  0  0
 11 12  1  0  0  0  0
 13 14  1  0  0  0  0
M  END
> <Acceptable>
true

> <IC50>
N/A

$$$$

Generated by Molecular Materials Informatics

 22 25  0  0  0  0  0  0  0  0999 V2000
   -9.6000    0.0000    0.0000 O   0  0  0  0  0  0  0  0  0  0  0  0
   -8.0000    0.0000    0.0000 C   0  0  0  0  0  0  0  0  0  0  0  0
   -7.2000   -1.3856    0.0000 C   0  0  0  0  0  0  0  0  0  0  0  0
   -5.6000   -1.3856    0.0000 C   0  0  0  0  0  0  0  0  0  0  0  0
   -4.8000    0.0000    0.0000 C   0  0  0  0  0  0  0  0  0  0  0  0
   -5.6000    1.3856    0.0000 C   0  0  0  0  0  0  0  0  0  0  0  0
   -7.2000    1.3856    0.0000 C   0  0  0  0  0  0  0  0  0  0  0  0
   -4.8000    2.7713    0.0000 C   0  0  0  0  0  0  0  0  0  0  0  0
   -3.2000    2.7713    0.0000 C   0  0  0  0  0  0  0  0  0  0  0  0
   -2.4000    1.3856    0.0000 C   0  0  0  0  0  0  0  0  0  0  0  0
   -0.8000    1.3856    0.0000 C   0  0  0  0  0  0  0  0  0  0  0  0
    0.2706    2.5747    0.0000 C   0  0  0  0  0  0  0  0  0  0  0  0
    1.7323    1.9239    0.0000 C   0  0  0  0  0  0  0  0  0  0  0  0
    1.5650    0.3327    0.0000 C   0  0  0  0  0  0  0  0  0  0  0  0
    2.2664   -1.1054    0.0000 O   0  0  0  0  0  0  0  0  0  0  0  0
    3.1650    0.3327    0.0000 C   0  0  0  0  0  0  0  0  0  0  0  0
    4.7650    0.3327    0.0000 C   0  0  0  0  0  0  0  0  0  0  0  0
    0.0000    0.0000    0.0000 C   0  0  0  0  0  0  0  0  0  0  0  0
    0.9405   -1.2944    0.0000 C   0  0  0  0  0  0  0  0  0  0  0  0
   -0.8000   -1.3856    0.0000 C   0  0  0  0  0  0  0  0  0  0  0  0
   -2.4000   -1.3856    0.0000 C   0  0  0  0  0  0  0  0  0  0  0  0
   -3.2000    0.0000    0.0000 C   0  0  0  0  0  0  0  0  0  0  0  0
  1  2  1  0  0  0  0
  2  3  1  0  0  0  0
  2  7  2  0  0  0  0
  3  4  2  0  0  0  0
  4  5  1  0  0  0  0
  5  6  2  0  0  0  0
 22  5  1  6  0  0  0
  6  7  1  0  0  0  0
  6  8  1  0  0  0  0
  8  9  1  0  0  0  0
 10  9  1  1  0  0  0
 10 11  1  0  0  0  0
 10 22  1  0  0  0  0
 11 12  1  6  0  0  0
 11 18  1  0  0  0  0
 12 13  1  0  0  0  0
 13 14  1  0  0  0  0
 14 15  1  6  0  0  0
 14 16  1  0  0  0  0
 14 18  1  0  0  0  0
 16 17  3  0  0  0  0
 18 19  1  6  0  0  0
 18 20  1  0  0  0  0
 20 21  1  0  0  0  0
 21 22  1  0  0  0  0
M  END
> <Acceptable>
true

> <IC50>
N/A

$$$$

Generated by Molecular Materials Informatics

 11 11  0  0  0  0  0  0  0  0999 V2000
   -2.4000    1.3856    0.0000 S   0  0  0  0  0  0  0  0  0  0  0  0
   -1.6000    0.0000    0.0000 C   0  0  0  0  0  0  0  0  0  0  0  0
   -2.4000   -1.3856    0.0000 N   0  0  0  0  0  0  0  0  0  0  0  0
    0.0000    0.0000    0.0000 C   0  0  0  0  0  0  0  0  0  0  0  0
    0.8000   -1.3856    0.0000 C   0  0  0  0  0  0  0  0  0  0  0  0
    2.4000   -1.3856    0.0000 C   0  0  0  0  0  0  0  0  0  0  0  0
    3.2000    0.0000    0.0000 N   0  0  0  0  0  0  0  0  0  0  0  0
    2.4000    1.3856    0.0000 C   0  0  0  0  0  0  0  0  0  0  0  0
    0.8000    1.3856    0.0000 C   0  0  0  0  0  0  0  0  0  0  0  0
    3.2000    2.7713    0.0000 C   0  0  0  0  0  0  0  0  0  0  0  0
    4.8000    2.7713    0.0000 C   0  0  0  0  0  0  0  0  0  0  0  0
  1  2  2  0  0  0  0
  2  3  1  0  0  0  0
  2  4  1  0  0  0  0
  4  5  1  0  0  0  0
  4  9  2  0  0  0  0
  5  6  2  0  0  0  0
  6  7  1  0  0  0  0
  7  8  2  0  0  0  0
  8  9  1  0  0  0  0
  8 10  1  0  0  0  0
 10 11  1  0  0  0  0
M  END
> <Acceptable>
true

> <IC50>
N/A

$$$$

Generated by Molecular Materials Informatics

 10 10  0  0  0  0  0  0  0  0999 V2000
   -4.1235   -0.3710    0.0000 O   0  0  0  0  0  0  0  0  0  0  0  0
   -2.5323   -0.5383    0.0000 C   0  0  0  0  0  0  0  0  0  0  0  0
   -1.7323   -1.9239    0.0000 N   0  0  0  0  0  0  0  0  0  0  0  0
   -0.1672   -1.5912    0.0000 C   0  0  0  0  0  0  0  0  0  0  0  0
    1.0218   -2.6618    0.0000 O   0  0  0  0  0  0  0  0  0  0  0  0
    0.0000    0.0000    0.0000 C   0  0  0  0  0  0  0  0  0  0  0  0
    1.5650   -0.3327    0.0000 C   0  0  0  0  0  0  0  0  0  0  0  0
   -1.4617    0.6508    0.0000 C   0  0  0  0  0  0  0  0  0  0  0  0
    0.4944    1.5217    0.0000 C   0  0  0  0  0  0  0  0  0  0  0  0
    2.0595    1.8543    0.0000 C   0  0  0  0  0  0  0  0  0  0  0  0
  1  2  2  0  0  0  0
  2  3  1  0  0  0  0
  2  8  1  0  0  0  0
  3  4  1  0  0  0  0
  4  5  2  0  0  0  0
  4  6  1  0  0  0  0
  6  7  1  1  0  0  0
  6  8  1  0  0  0  0
  6  9  1  0  0  0  0
  9 10  1  0  0  0  0
M  END
> <Acceptable>
true

> <IC50>
N/A

$$$$

Generated by Molecular Materials Informatics

 21 23  0  0  0  0  0  0  0  0999 V2000
   -2.4513   -2.0569    0.0000 O   0  0  0  0  0  0  0  0  0  0  0  0
   -2.7292   -0.4812    0.0000 C   0  0  0  0  0  0  0  0  0  0  0  0
   -4.2327    0.0660    0.0000 O   0  0  0  0  0  0  0  0  0  0  0  0
   -1.5035    0.5472    0.0000 C   0  0  0  0  0  0  0  0  0  0  0  0
    0.0000    0.0000    0.0000 C   0  0  0  0  0  0  0  0  0  0  0  0
   -0.8000   -1.3856    0.0000 O   0  0  0  0  0  0  0  0  0  0  0  0
    0.0000   -2.7713    0.0000 C   0  0  0  0  0  0  0  0  0  0  0  0
    1.6000   -2.7713    0.0000 C   0  0  0  0  0  0  0  0  0  0  0  0
    2.4000   -1.3856    0.0000 C   0  0  0  0  0  0  0  0  0  0  0  0
    3.9650   -1.0530    0.0000 C   0  0  0  0  0  0  0  0  0  0  0  0
    5.2595   -1.9934    0.0000 C   0  0  0  0  0  0  0  0  0  0  0  0
    6.7211   -1.3427    0.0000 C   0  0  0  0  0  0  0  0  0  0  0  0
    6.8884    0.2486    0.0000 C   0  0  0  0  0  0  0  0  0  0  0  0
    5.5940    1.1890    0.0000 C   0  0  0  0  0  0  0  0  0  0  0  0
    5.7612    2.7803    0.0000 C   0  0  0  0  0  0  0  0  0  0  0  0
    7.2229    3.4310    0.0000 C   0  0  0  0  0  0  0  0  0  0  0  0
    4.1323    0.5383    0.0000 C   0  0  0  0  0  0  0  0  0  0  0  0
    2.6706    1.1890    0.0000 N   0  0  0  0  0  0  0  0  0  0  0  0
    1.6000    0.0000    0.0000 C   0  0  0  0  0  0  0  0  0  0  0  0
    0.2778    1.5757    0.0000 C   0  0  0  0  0  0  0  0  0  0  0  0
   -0.9478    2.6042    0.0000 C   0  0  0  0  0  0  0  0  0  0  0  0
  1  2  2  0  0  0  0
  2  3  1  0  0  0  0
  2  4  1  0  0  0  0
  4  5  1  0  0  0  0
  5  6  1  0  0  0  0
  5 19  1  0  0  0  0
  5 20  1  6  0  0  0
  6  7  1  0  0  0  0
  7  8  1  0  0  0  0
  8  9  1  0  0  0  0
  9 10  1  0  0  0  0
  9 19  2  0  0  0  0
 10 11  1  0  0  0  0
 10 17  2  0  0  0  0
 11 12  2  0  0  0  0
 12 13  1  0  0  0  0
 13 14  2  0  0  0  0
 14 15  1  0  0  0  0
 14 17  1  0  0  0  0
 15 16  1  0  0  0  0
 17 18  1  0  0  0  0
 18 19  1  0  0  0  0
 20 21  1  0  0  0  0
M  END
> <Acceptable>
true

> <IC50>
N/A

$$$$

Generated by Molecular Materials Informatics

 42 48  0  0  0  0  0  0  0  0999 V2000
    0.6477    3.5541    0.0000 O   0  0  0  0  0  0  0  0  0  0  0  0
    1.7183    2.3650    0.0000 C   0  0  0  0  0  0  0  0  0  0  0  0
    3.3095    2.5323    0.0000 O   0  0  0  0  0  0  0  0  0  0  0  0
    3.9603    1.0706    0.0000 C   0  0  0  0  0  0  0  0  0  0  0  0
    2.7713    0.0000    0.0000 C   0  0  0  0  0  0  0  0  0  0  0  0
    1.3856    0.8000    0.0000 C   0  0  0  0  0  0  0  0  0  0  0  0
    0.0000    0.0000    0.0000 C   0  0  0  0  0  0  0  0  0  0  0  0
   -1.3856    0.8000    0.0000 C   0  0  0  0  0  0  0  0  0  0  0  0
   -2.7713    0.0000    0.0000 C   0  0  0  0  0  0  0  0  0  0  0  0
   -4.1569    0.8000    0.0000 C   0  0  0  0  0  0  0  0  0  0  0  0
   -5.5426    0.0000    0.0000 O   0  0  0  0  0  0  0  0  0  0  0  0
   -6.9282    0.8000    0.0000 C   0  0  0  0  0  0  0  0  0  0  0  0
   -4.1569    2.4000    0.0000 C   0  0  0  0  0  0  0  0  0  0  0  0
   -5.5426    3.2000    0.0000 O   0  0  0  0  0  0  0  0  0  0  0  0
   -2.7713    3.2000    0.0000 C   0  0  0  0  0  0  0  0  0  0  0  0
   -2.7713    4.8000    0.0000 O   0  0  0  0  0  0  0  0  0  0  0  0
   -4.1569    5.6000    0.0000 C   0  0  0  0  0  0  0  0  0  0  0  0
   -1.3856    2.4000    0.0000 C   0  0  0  0  0  0  0  0  0  0  0  0
    0.0000   -1.6000    0.0000 C   0  0  0  0  0  0  0  0  0  0  0  0
   -1.3856   -2.4000    0.0000 C   0  0  0  0  0  0  0  0  0  0  0  0
   -1.3856   -4.0000    0.0000 C   0  0  0  0  0  0  0  0  0  0  0  0
   -2.5747   -5.0706    0.0000 O   0  0  0  0  0  0  0  0  0  0  0  0
   -1.9239   -6.5323    0.0000 C   0  0  0  0  0  0  0  0  0  0  0  0
   -0.3327   -6.3650    0.0000 O   0  0  0  0  0  0  0  0  0  0  0  0
    0.0000   -4.8000    0.0000 C   0  0  0  0  0  0  0  0  0  0  0  0
    1.3856   -4.0000    0.0000 C   0  0  0  0  0  0  0  0  0  0  0  0
    1.3856   -2.4000    0.0000 C   0  0  0  0  0  0  0  0  0  0  0  0
    2.7713   -1.6000    0.0000 C   0  0  0  0  0  0  0  0  0  0  0  0
    4.1569   -2.4000    0.0000 O   0  0  0  0  0  0  0  0  0  0  0  0
    5.5426   -1.6000    0.0000 C   0  0  0  0  0  0  0  0  0  0  0  0
    5.5426    0.0000    0.0000 O   0  0  0  0  0  0  0  0  0  0  0  0
    6.9282    0.8000    0.0000 C   0  0  0  0  0  0  0  0  0  0  0  0
    6.9282    2.4000    0.0000 C   0  0  0  0  0  0  0  0  0  0  0  0
    8.3138    3.2000    0.0000 O   0  0  0  0  0  0  0  0  0  0  0  0
    9.6995    2.4000    0.0000 C   0  0  0  0  0  0  0  0  0  0  0  0
    9.6995    0.8000    0.0000 O   0  0  0  0  0  0  0  0  0  0  0  0
    8.3138    0.0000    0.0000 C   0  0  0  0  0  0  0  0  0  0  0  0
    8.3138   -1.6000    0.0000 C   0  0  0  0  0  0  0  0  0  0  0  0
    9.6995   -2.4000    0.0000 O   0  0  0  0  0  0  0  0  0  0  0  0
    6.9282   -2.4000    0.0000 C   0  0  0  0  0  0  0  0  0  0  0  0
    6.9282   -4.0000    0.0000 O   0  0  0  0  0  0  0  0  0  0  0  0
   11.0851    3.2000    0.0000 C   0  0  0  0  0  0  0  0  0  0  0  0
  1  2  2  0  0  0  0
  2  3  1  0  0  0  0
  6  2  1  1  0  0  0
  3  4  1  0  0  0  0
  5  4  1  6  0  0  0
  5  6  1  0  0  0  0
  5 28  1  0  0  0  0
  6  7  1  0  0  0  0
  7  8  1  1  0  0  0
  7 19  1  0  0  0  0
  8  9  1  0  0  0  0
  8 18  2  0  0  0  0
  9 10  2  0  0  0  0
 10 11  1  0  0  0  0
 10 13  1  0  0  0  0
 11 12  1  0  0  0  0
 13 14  1  0  0  0  0
 13 15  2  0  0  0  0
 15 16  1  0  0  0  0
 15 18  1  0  0  0  0
 16 17  1  0  0  0  0
 19 20  1  0  0  0  0
 19 27  2  0  0  0  0
 20 21  2  0  0  0  0
 21 22  1  0  0  0  0
 21 25  1  0  0  0  0
 22 23  1  0  0  0  0
 23 24  1  0  0  0  0
 24 25  1  0  0  0  0
 25 26  2  0  0  0  0
 26 27  1  0  0  0  0
 27 28  1  0  0  0  0
 28 29  1  6  0  0  0
 30 29  1  6  0  0  0
 30 31  1  0  0  0  0
 30 40  1  0  0  0  0
 31 32  1  0  0  0  0
 32 33  1  6  0  0  0
 32 37  1  0  0  0  0
 33 34  1  0  0  0  0
 34 35  1  0  0  0  0
 35 36  1  0  0  0  0
 35 42  1  1  0  0  0
 37 36  1  1  0  0  0
 37 38  1  0  0  0  0
 38 39  1  6  0  0  0
 38 40  1  0  0  0  0
 40 41  1  1  0  0  0
M  END
> <Acceptable>
true

> <IC50>
N/A

$$$$

Generated by Molecular Materials Informatics

 20 20  0  0  0  0  0  0  0  0999 V2000
    0.4944    1.5217    0.0000 S   0  0  0  0  0  0  0  0  0  0  0  0
    2.0944    1.5217    0.0000 C   0  0  0  0  0  0  0  0  0  0  0  0
    2.5889    0.0000    0.0000 C   0  0  0  0  0  0  0  0  0  0  0  0
    1.2944   -0.9405    0.0000 N   0  0  0  0  0  0  0  0  0  0  0  0
    0.0000    0.0000    0.0000 C   0  0  0  0  0  0  0  0  0  0  0  0
   -1.5217   -0.4944    0.0000 N   0  0  0  0  0  0  0  0  0  0  0  0
   -2.7107    0.5762    0.0000 C   0  0  0  0  0  0  0  0  0  0  0  0
   -2.3781    2.1412    0.0000 N   0  0  0  0  0  0  0  0  0  0  0  0
   -4.2324    0.0818    0.0000 N   0  0  0  0  0  0  0  0  0  0  0  0
    4.1105   -0.4944    0.0000 C   0  0  0  0  0  0  0  0  0  0  0  0
    5.2996    0.5762    0.0000 S   0  0  0  0  0  0  0  0  0  0  0  0
    6.8213    0.0818    0.0000 C   0  0  0  0  0  0  0  0  0  0  0  0
    8.0103    1.1524    0.0000 C   0  0  0  0  0  0  0  0  0  0  0  0
    9.5320    0.6579    0.0000 C   0  0  0  0  0  0  0  0  0  0  0  0
    9.8646   -0.9071    0.0000 N   0  0  0  0  0  0  0  0  0  0  0  0
   10.7210    1.7285    0.0000 N   0  0  0  0  0  0  0  0  0  0  0  0
   12.2427    1.2341    0.0000 S   0  0  0  0  0  0  0  0  0  0  0  0
   11.7483   -0.2876    0.0000 O   0  0  0  0  0  0  0  0  0  0  0  0
   12.7371    2.7558    0.0000 O   0  0  0  0  0  0  0  0  0  0  0  0
   13.7644    0.7397    0.0000 N   0  0  0  0  0  0  0  0  0  0  0  0
  1  2  1  0  0  0  0
  1  5  1  0  0  0  0
  2  3  2  0  0  0  0
  3  4  1  0  0  0  0
  3 10  1  0  0  0  0
  4  5  2  0  0  0  0
  5  6  1  0  0  0  0
  6  7  2  0  0  0  0
  7  8  1  0  0  0  0
  7  9  1  0  0  0  0
 10 11  1  0  0  0  0
 11 12  1  0  0  0  0
 12 13  1  0  0  0  0
 13 14  1  0  0  0  0
 14 15  1  0  0  0  0
 14 16  2  0  0  0  0
 16 17  1  0  0  0  0
 17 18  2  0  0  0  0
 17 19  2  0  0  0  0
 17 20  1  0  0  0  0
M  END
> <Acceptable>
false

> <IC50>
10

$$$$

Generated by Molecular Materials Informatics

 30 34  0  0  0  0  0  0  0  0999 V2000
    0.0000    0.0000    0.0000 S   0  0  0  0  0  0  0  0  0  0  0  0
   16.1662    1.6928    0.0000 F   0  0  0  0  0  0  0  0  0  0  0  0
    0.1993    1.5875    0.0000 O   0  0  0  0  0  0  0  0  0  0  0  0
   -1.5503    0.3956    0.0000 O   0  0  0  0  0  0  0  0  0  0  0  0
    6.5928    2.4067    0.0000 N   0  0  0  0  0  0  0  0  0  0  0  0
    1.6000    0.0000    0.0000 N   0  0  0  0  0  0  0  0  0  0  0  0
    9.7839    2.1687    0.0000 N   0  0  0  0  0  0  0  0  0  0  0  0
    4.9972    2.5256    0.0000 C   0  0  0  0  0  0  0  0  0  0  0  0
    7.2875    0.9654    0.0000 C   0  0  0  0  0  0  0  0  0  0  0  0
    7.4936    3.7290    0.0000 C   0  0  0  0  0  0  0  0  0  0  0  0
    4.0964    1.2033    0.0000 C   0  0  0  0  0  0  0  0  0  0  0  0
    2.5008    1.3223    0.0000 C   0  0  0  0  0  0  0  0  0  0  0  0
    8.8831    0.8464    0.0000 C   0  0  0  0  0  0  0  0  0  0  0  0
    9.0892    3.6100    0.0000 C   0  0  0  0  0  0  0  0  0  0  0  0
    2.1856   -1.4890    0.0000 C   0  0  0  0  0  0  0  0  0  0  0  0
    0.8000   -2.2890    0.0000 C   0  0  0  0  0  0  0  0  0  0  0  0
   -0.5856   -1.4890    0.0000 C   0  0  0  0  0  0  0  0  0  0  0  0
    0.8000   -3.8890    0.0000 C   0  0  0  0  0  0  0  0  0  0  0  0
   11.3795    2.0497    0.0000 C   0  0  0  0  0  0  0  0  0  0  0  0
    3.5713   -2.2890    0.0000 C   0  0  0  0  0  0  0  0  0  0  0  0
   -1.9713   -2.2890    0.0000 C   0  0  0  0  0  0  0  0  0  0  0  0
    2.1856   -4.6890    0.0000 C   0  0  0  0  0  0  0  0  0  0  0  0
   -0.5856   -4.6890    0.0000 C   0  0  0  0  0  0  0  0  0  0  0  0
    3.5713   -3.8890    0.0000 C   0  0  0  0  0  0  0  0  0  0  0  0
   -1.9713   -3.8890    0.0000 C   0  0  0  0  0  0  0  0  0  0  0  0
   12.0742    0.6084    0.0000 C   0  0  0  0  0  0  0  0  0  0  0  0
   12.2803    3.3720    0.0000 C   0  0  0  0  0  0  0  0  0  0  0  0
   13.6698    0.4894    0.0000 C   0  0  0  0  0  0  0  0  0  0  0  0
   13.8759    3.2530    0.0000 C   0  0  0  0  0  0  0  0  0  0  0  0
   14.5706    1.8117    0.0000 C   0  0  0  0  0  0  0  0  0  0  0  0
  1  3  2  0  0  0  0
  1  4  2  0  0  0  0
  1  6  1  0  0  0  0
  1 17  1  0  0  0  0
  2 30  1  0  0  0  0
  5  8  1  0  0  0  0
  5  9  1  0  0  0  0
  5 10  1  0  0  0  0
  6 12  1  1  0  0  0
  6 15  1  0  0  0  0
  7 13  1  0  0  0  0
  7 14  1  0  0  0  0
  7 19  1  0  0  0  0
  8 11  1  0  0  0  0
  9 13  1  0  0  0  0
 10 14  1  0  0  0  0
 11 12  1  0  0  0  0
 15 16  1  0  0  0  0
 15 20  2  0  0  0  0
 16 17  2  0  0  0  0
 16 18  1  0  0  0  0
 17 21  1  0  0  0  0
 18 22  1  0  0  0  0
 18 23  2  0  0  0  0
 19 26  2  0  0  0  0
 19 27  1  0  0  0  0
 20 24  1  0  0  0  0
 21 25  2  0  0  0  0
 22 24  2  0  0  0  0
 23 25  1  0  0  0  0
 26 28  1  0  0  0  0
 27 29  2  0  0  0  0
 28 30  2  0  0  0  0
 29 30  1  0  0  0  0
M  END
> <Acceptable>
false

> <IC50>
0.199

$$$$

Generated by Molecular Materials Informatics

 17 17  0  0  0  0  0  0  0  0999 V2000
    0.0000    4.8000    0.0000 O   0  0  0  0  0  0  0  0  0  0  0  0
    1.3856    4.0000    0.0000 C   0  0  0  0  0  0  0  0  0  0  0  0
    1.3856    2.4000    0.0000 O   0  0  0  0  0  0  0  0  0  0  0  0
    0.0000    1.6000    0.0000 C   0  0  0  0  0  0  0  0  0  0  0  0
    0.0000    0.0000    0.0000 C   0  0  0  0  0  0  0  0  0  0  0  0
    1.3856   -0.8000    0.0000 C   0  0  0  0  0  0  0  0  0  0  0  0
    2.7713    0.0000    0.0000 O   0  0  0  0  0  0  0  0  0  0  0  0
    4.1569   -0.8000    0.0000 C   0  0  0  0  0  0  0  0  0  0  0  0
    4.1569   -2.4000    0.0000 O   0  0  0  0  0  0  0  0  0  0  0  0
    5.5426    0.0000    0.0000 N   0  0  0  0  0  0  0  0  0  0  0  0
   -1.3856   -0.8000    0.0000 C   0  0  0  0  0  0  0  0  0  0  0  0
   -1.3856   -2.4000    0.0000 C   0  0  0  0  0  0  0  0  0  0  0  0
   -2.7713   -3.2000    0.0000 C   0  0  0  0  0  0  0  0  0  0  0  0
   -4.1569   -2.4000    0.0000 C   0  0  0  0  0  0  0  0  0  0  0  0
   -4.1569   -0.8000    0.0000 C   0  0  0  0  0  0  0  0  0  0  0  0
   -2.7713    0.0000    0.0000 C   0  0  0  0  0  0  0  0  0  0  0  0
    2.7713    4.8000    0.0000 N   0  0  0  0  0  0  0  0  0  0  0  0
  1  2  2  0  0  0  0
  2  3  1  0  0  0  0
  2 17  1  0  0  0  0
  3  4  1  0  0  0  0
  4  5  1  0  0  0  0
  5  6  1  0  0  0  0
  5 11  1  0  0  0  0
  6  7  1  0  0  0  0
  7  8  1  0  0  0  0
  8  9  2  0  0  0  0
  8 10  1  0  0  0  0
 11 12  1  0  0  0  0
 11 16  2  0  0  0  0
 12 13  2  0  0  0  0
 13 14  1  0  0  0  0
 14 15  2  0  0  0  0
 15 16  1  0  0  0  0
M  END
> <Acceptable>
true

> <IC50>
N/A

$$$$

Generated by Molecular Materials Informatics

 25 26  0  0  0  0  0  0  0  0999 V2000
    1.8957    5.2083    0.0000 Cl  0  0  0  0  0  0  0  0  0  0  0  0
    0.6700    4.1798    0.0000 C   0  0  0  0  0  0  0  0  0  0  0  0
   -0.8335    4.7271    0.0000 C   0  0  0  0  0  0  0  0  0  0  0  0
   -2.0592    3.6986    0.0000 C   0  0  0  0  0  0  0  0  0  0  0  0
   -1.7813    2.1229    0.0000 C   0  0  0  0  0  0  0  0  0  0  0  0
   -0.2778    1.5757    0.0000 C   0  0  0  0  0  0  0  0  0  0  0  0
    0.9478    2.6042    0.0000 C   0  0  0  0  0  0  0  0  0  0  0  0
    2.4513    2.0569    0.0000 Cl  0  0  0  0  0  0  0  0  0  0  0  0
    0.0000    0.0000    0.0000 C   0  0  0  0  0  0  0  0  0  0  0  0
    1.3856   -0.8000    0.0000 C   0  0  0  0  0  0  0  0  0  0  0  0
    1.3856   -2.4000    0.0000 C   0  0  0  0  0  0  0  0  0  0  0  0
    0.0000   -3.2000    0.0000 N   0  0  0  0  0  0  0  0  0  0  0  0
   -1.3856   -2.4000    0.0000 C   0  0  0  0  0  0  0  0  0  0  0  0
   -2.7713   -3.2000    0.0000 C   0  0  0  0  0  0  0  0  0  0  0  0
   -1.3856   -0.8000    0.0000 C   0  0  0  0  0  0  0  0  0  0  0  0
   -2.7713    0.0000    0.0000 C   0  0  0  0  0  0  0  0  0  0  0  0
   -2.7713    1.6000    0.0000 O   0  0  0  0  0  0  0  0  0  0  0  0
   -4.1569   -0.8000    0.0000 O   0  0  0  0  0  0  0  0  0  0  0  0
   -5.5426    0.0000    0.0000 C   0  0  0  0  0  0  0  0  0  0  0  0
   -6.9282   -0.8000    0.0000 C   0  0  0  0  0  0  0  0  0  0  0  0
    2.7713   -3.2000    0.0000 C   0  0  0  0  0  0  0  0  0  0  0  0
    2.9613   -0.5222    0.0000 C   0  0  0  0  0  0  0  0  0  0  0  0
    3.5086    0.9813    0.0000 O   0  0  0  0  0  0  0  0  0  0  0  0
    3.9898   -1.7478    0.0000 O   0  0  0  0  0  0  0  0  0  0  0  0
    5.5655   -1.4700    0.0000 C   0  0  0  0  0  0  0  0  0  0  0  0
  1  2  1  0  0  0  0
  2  3  1  0  0  0  0
  2  7  2  0  0  0  0
  3  4  2  0  0  0  0
  4  5  1  0  0  0  0
  5  6  2  0  0  0  0
  6  7  1  0  0  0  0
  9  6  1  6  0  0  0
  7  8  1  0  0  0  0
  9 10  1  0  0  0  0
  9 15  1  0  0  0  0
 10 11  2  0  0  0  0
 10 22  1  0  0  0  0
 11 12  1  0  0  0  0
 11 21  1  0  0  0  0
 12 13  1  0  0  0  0
 13 14  1  0  0  0  0
 13 15  2  0  0  0  0
 15 16  1  0  0  0  0
 16 17  2  0  0  0  0
 16 18  1  0  0  0  0
 18 19  1  0  0  0  0
 19 20  1  0  0  0  0
 22 23  2  0  0  0  0
 22 24  1  0  0  0  0
 24 25  1  0  0  0  0
M  END
> <Acceptable>
true

> <IC50>
N/A

$$$$

Generated by Molecular Materials Informatics

 18 19  0  0  0  0  0  0  0  0999 V2000
   -2.7713   -1.6000    0.0000 O   0  0  0  0  0  0  0  0  0  0  0  0
   -2.7713    0.0000    0.0000 C   0  0  0  0  0  0  0  0  0  0  0  0
   -4.1569    0.8000    0.0000 O   0  0  0  0  0  0  0  0  0  0  0  0
   -1.3856    0.8000    0.0000 C   0  0  0  0  0  0  0  0  0  0  0  0
   -1.3856    2.4000    0.0000 C   0  0  0  0  0  0  0  0  0  0  0  0
    0.0000    0.0000    0.0000 C   0  0  0  0  0  0  0  0  0  0  0  0
    0.0000   -1.6000    0.0000 C   0  0  0  0  0  0  0  0  0  0  0  0
    1.3856   -2.4000    0.0000 C   0  0  0  0  0  0  0  0  0  0  0  0
    2.7713   -1.6000    0.0000 C   0  0  0  0  0  0  0  0  0  0  0  0
    2.7713    0.0000    0.0000 C   0  0  0  0  0  0  0  0  0  0  0  0
    4.1569    0.8000    0.0000 O   0  0  0  0  0  0  0  0  0  0  0  0
    5.5426    0.0000    0.0000 C   0  0  0  0  0  0  0  0  0  0  0  0
    5.5426   -1.6000    0.0000 C   0  0  0  0  0  0  0  0  0  0  0  0
    6.9282   -2.4000    0.0000 C   0  0  0  0  0  0  0  0  0  0  0  0
    8.3138   -1.6000    0.0000 C   0  0  0  0  0  0  0  0  0  0  0  0
    8.3138    0.0000    0.0000 C   0  0  0  0  0  0  0  0  0  0  0  0
    6.9282    0.8000    0.0000 C   0  0  0  0  0  0  0  0  0  0  0  0
    1.3856    0.8000    0.0000 C   0  0  0  0  0  0  0  0  0  0  0  0
  1  2  2  0  0  0  0
  2  3  1  0  0  0  0
  2  4  1  0  0  0  0
  4  5  1  6  0  0  0
  4  6  1  0  0  0  0
  6  7  1  0  0  0  0
  6 18  2  0  0  0  0
  7  8  2  0  0  0  0
  8  9  1  0  0  0  0
  9 10  2  0  0  0  0
 10 11  1  0  0  0  0
 10 18  1  0  0  0  0
 11 12  1  0  0  0  0
 12 13  1  0  0  0  0
 12 17  2  0  0  0  0
 13 14  2  0  0  0  0
 14 15  1  0  0  0  0
 15 16  2  0  0  0  0
 16 17  1  0  0  0  0
M  END
> <Acceptable>
true

> <IC50>
N/A

$$$$

Generated by Molecular Materials Informatics

 25 27  0  0  0  0  0  0  0  0999 V2000
    0.0000    2.7713    0.0000 O   0  0  0  0  0  0  0  0  0  0  0  0
    0.8000    1.3856    0.0000 C   0  0  0  0  0  0  0  0  0  0  0  0
    0.0000    0.0000    0.0000 N   0  0  0  0  0  0  0  0  0  0  0  0
    0.8000   -1.3856    0.0000 C   0  0  0  0  0  0  0  0  0  0  0  0
    2.4000   -1.3856    0.0000 C   0  0  0  0  0  0  0  0  0  0  0  0
    3.2000   -2.7713    0.0000 C   0  0  0  0  0  0  0  0  0  0  0  0
    2.4000   -4.1569    0.0000 C   0  0  0  0  0  0  0  0  0  0  0  0
    0.8000   -4.1569    0.0000 C   0  0  0  0  0  0  0  0  0  0  0  0
    0.0000   -2.7713    0.0000 C   0  0  0  0  0  0  0  0  0  0  0  0
   -1.6000    0.0000    0.0000 C   0  0  0  0  0  0  0  0  0  0  0  0
   -2.4000   -1.3856    0.0000 C   0  0  0  0  0  0  0  0  0  0  0  0
   -4.0000   -1.3856    0.0000 C   0  0  0  0  0  0  0  0  0  0  0  0
   -4.8000    0.0000    0.0000 N   0  0  0  0  0  0  0  0  0  0  0  0
   -4.0000    1.3856    0.0000 C   0  0  0  0  0  0  0  0  0  0  0  0
   -2.4000    1.3856    0.0000 C   0  0  0  0  0  0  0  0  0  0  0  0
   -6.4000    0.0000    0.0000 C   0  0  0  0  0  0  0  0  0  0  0  0
   -7.2000    1.3856    0.0000 C   0  0  0  0  0  0  0  0  0  0  0  0
   -8.8000    1.3856    0.0000 C   0  0  0  0  0  0  0  0  0  0  0  0
   -9.6000    0.0000    0.0000 C   0  0  0  0  0  0  0  0  0  0  0  0
  -11.2000    0.0000    0.0000 C   0  0  0  0  0  0  0  0  0  0  0  0
  -12.0000    1.3856    0.0000 C   0  0  0  0  0  0  0  0  0  0  0  0
  -11.2000    2.7713    0.0000 C   0  0  0  0  0  0  0  0  0  0  0  0
   -9.6000    2.7713    0.0000 C   0  0  0  0  0  0  0  0  0  0  0  0
    2.4000    1.3856    0.0000 C   0  0  0  0  0  0  0  0  0  0  0  0
    3.2000    2.7713    0.0000 C   0  0  0  0  0  0  0  0  0  0  0  0
  1  2  2  0  0  0  0
  2  3  1  0  0  0  0
  2 24  1  0  0  0  0
  3  4  1  0  0  0  0
 10  3  1  6  0  0  0
  4  5  1  0  0  0  0
  4  9  2  0  0  0  0
  5  6  2  0  0  0  0
  6  7  1  0  0  0  0
  7  8  2  0  0  0  0
  8  9  1  0  0  0  0
 10 11  1  0  0  0  0
 10 15  1  0  0  0  0
 11 12  1  0  0  0  0
 12 13  1  0  0  0  0
 13 14  1  0  0  0  0
 13 16  1  1  0  0  0
 14 15  1  0  0  0  0
 16 17  1  0  0  0  0
 17 18  1  0  0  0  0
 18 19  1  0  0  0  0
 18 23  2  0  0  0  0
 19 20  2  0  0  0  0
 20 21  1  0  0  0  0
 21 22  2  0  0  0  0
 22 23  1  0  0  0  0
 24 25  1  0  0  0  0
M  END
> <Acceptable>
false

> <IC50>
1.82

$$$$

Generated by Molecular Materials Informatics

 37 40  0  0  0  0  0  0  0  0999 V2000
    0.0000    0.0000    0.0000 C   0  0  0  0  0  0  0  0  0  0  0  0
    1.3856   -0.8000    0.0000 C   0  0  0  0  0  0  0  0  0  0  0  0
   -0.8000   -1.3856    0.0000 C   0  0  0  0  0  0  0  0  0  0  0  0
   -1.3856    0.8000    0.0000 C   0  0  0  0  0  0  0  0  0  0  0  0
    0.8000    1.3856    0.0000 O   0  0  0  0  0  0  0  0  0  0  0  0
    1.3856   -2.4000    0.0000 C   0  0  0  0  0  0  0  0  0  0  0  0
    2.7713    0.0000    0.0000 C   0  0  0  0  0  0  0  0  0  0  0  0
   -2.4000   -1.3856    0.0000 C   0  0  0  0  0  0  0  0  0  0  0  0
    0.0000   -2.7713    0.0000 C   0  0  0  0  0  0  0  0  0  0  0  0
   -1.3856    2.4000    0.0000 C   0  0  0  0  0  0  0  0  0  0  0  0
   -2.7713    0.0000    0.0000 C   0  0  0  0  0  0  0  0  0  0  0  0
    2.7713   -3.2000    0.0000 C   0  0  0  0  0  0  0  0  0  0  0  0
    4.1569   -0.8000    0.0000 C   0  0  0  0  0  0  0  0  0  0  0  0
   -3.2000   -2.7713    0.0000 C   0  0  0  0  0  0  0  0  0  0  0  0
   -0.8000   -4.1569    0.0000 C   0  0  0  0  0  0  0  0  0  0  0  0
   -2.7713    3.2000    0.0000 C   0  0  0  0  0  0  0  0  0  0  0  0
   -4.1569    0.8000    0.0000 C   0  0  0  0  0  0  0  0  0  0  0  0
    4.1569   -2.4000    0.0000 N   0  0  0  0  0  0  0  0  0  0  0  0
   -2.4000   -4.1569    0.0000 C   0  0  0  0  0  0  0  0  0  0  0  0
   -4.1569    2.4000    0.0000 C   0  0  0  0  0  0  0  0  0  0  0  0
    5.5426   -3.2000    0.0000 C   0  0  0  0  0  0  0  0  0  0  0  0
    6.9282   -2.4000    0.0000 C   0  0  0  0  0  0  0  0  0  0  0  0
    8.3138   -3.2000    0.0000 C   0  0  0  0  0  0  0  0  0  0  0  0
    9.6995   -2.4000    0.0000 C   0  0  0  0  0  0  0  0  0  0  0  0
   11.0851   -3.2000    0.0000 C   0  0  0  0  0  0  0  0  0  0  0  0
    9.6995   -0.8000    0.0000 O   0  0  0  0  0  0  0  0  0  0  0  0
   11.0851   -4.8000    0.0000 C   0  0  0  0  0  0  0  0  0  0  0  0
   12.4708   -2.4000    0.0000 C   0  0  0  0  0  0  0  0  0  0  0  0
   12.4708   -5.6000    0.0000 C   0  0  0  0  0  0  0  0  0  0  0  0
   13.8564   -3.2000    0.0000 C   0  0  0  0  0  0  0  0  0  0  0  0
   13.8564   -4.8000    0.0000 C   0  0  0  0  0  0  0  0  0  0  0  0
   15.2420   -5.6000    0.0000 C   0  0  0  0  0  0  0  0  0  0  0  0
   16.6277   -4.8000    0.0000 C   0  0  0  0  0  0  0  0  0  0  0  0
   15.8543   -7.0782    0.0000 C   0  0  0  0  0  0  0  0  0  0  0  0
   14.6298   -7.0782    0.0000 C   0  0  0  0  0  0  0  0  0  0  0  0
   16.6277   -3.2000    0.0000 O   0  0  0  0  0  0  0  0  0  0  0  0
   18.0133   -5.6000    0.0000 O   0  0  0  0  0  0  0  0  0  0  0  0
  2  1  1  1  0  0  0
  1  3  1  0  0  0  0
  1  4  1  0  0  0  0
  1  5  1  0  0  0  0
  2  6  1  0  0  0  0
  2  7  1  0  0  0  0
  3  8  2  0  0  0  0
  3  9  1  0  0  0  0
  4 10  2  0  0  0  0
  4 11  1  0  0  0  0
  6 12  1  0  0  0  0
  7 13  1  0  0  0  0
  8 14  1  0  0  0  0
  9 15  2  0  0  0  0
 10 16  1  0  0  0  0
 11 17  2  0  0  0  0
 12 18  1  0  0  0  0
 13 18  1  0  0  0  0
 14 19  2  0  0  0  0
 15 19  1  0  0  0  0
 16 20  2  0  0  0  0
 17 20  1  0  0  0  0
 18 21  1  6  0  0  0
 21 22  1  0  0  0  0
 22 23  1  0  0  0  0
 23 24  1  0  0  0  0
 24 25  1  0  0  0  0
 24 26  1  1  0  0  0
 25 27  2  0  0  0  0
 25 28  1  0  0  0  0
 27 29  1  0  0  0  0
 28 30  2  0  0  0  0
 29 31  2  0  0  0  0
 30 31  1  0  0  0  0
 31 32  1  0  0  0  0
 32 33  1  0  0  0  0
 32 34  1  0  0  0  0
 32 35  1  0  0  0  0
 33 36  1  0  0  0  0
 33 37  2  0  0  0  0
M  END
> <Acceptable>
false

> <IC50>
17.4

$$$$

Generated by Molecular Materials Informatics

 27 30  0  0  0  0  0  0  0  0999 V2000
   -9.6000    0.0000    0.0000 O   0  0  0  0  0  0  0  0  0  0  0  0
   -8.0000    0.0000    0.0000 C   0  0  0  0  0  0  0  0  0  0  0  0
   -7.2000    1.3856    0.0000 N   0  0  0  0  0  0  0  0  0  0  0  0
   -5.6000    1.3856    0.0000 C   0  0  0  0  0  0  0  0  0  0  0  0
   -4.8000    2.7713    0.0000 C   0  0  0  0  0  0  0  0  0  0  0  0
   -3.2000    2.7713    0.0000 C   0  0  0  0  0  0  0  0  0  0  0  0
   -2.4000    1.3856    0.0000 C   0  0  0  0  0  0  0  0  0  0  0  0
   -0.8000    1.3856    0.0000 C   0  0  0  0  0  0  0  0  0  0  0  0
    0.2706    2.5747    0.0000 C   0  0  0  0  0  0  0  0  0  0  0  0
    1.7323    1.9239    0.0000 C   0  0  0  0  0  0  0  0  0  0  0  0
    1.5650    0.3327    0.0000 C   0  0  0  0  0  0  0  0  0  0  0  0
    2.7541   -0.7380    0.0000 C   0  0  0  0  0  0  0  0  0  0  0  0
    2.4214   -2.3030    0.0000 O   0  0  0  0  0  0  0  0  0  0  0  0
    4.2758   -0.2435    0.0000 N   0  0  0  0  0  0  0  0  0  0  0  0
    5.4648   -1.3141    0.0000 C   0  0  0  0  0  0  0  0  0  0  0  0
    5.1321   -2.8792    0.0000 C   0  0  0  0  0  0  0  0  0  0  0  0
    6.9865   -0.8197    0.0000 C   0  0  0  0  0  0  0  0  0  0  0  0
    6.6538   -2.3847    0.0000 C   0  0  0  0  0  0  0  0  0  0  0  0
    0.0000    0.0000    0.0000 C   0  0  0  0  0  0  0  0  0  0  0  0
    0.9405   -1.2944    0.0000 C   0  0  0  0  0  0  0  0  0  0  0  0
   -0.8000   -1.3856    0.0000 C   0  0  0  0  0  0  0  0  0  0  0  0
   -2.4000   -1.3856    0.0000 C   0  0  0  0  0  0  0  0  0  0  0  0
   -3.2000    0.0000    0.0000 C   0  0  0  0  0  0  0  0  0  0  0  0
   -4.8000    0.0000    0.0000 C   0  0  0  0  0  0  0  0  0  0  0  0
   -4.0000   -1.3856    0.0000 C   0  0  0  0  0  0  0  0  0  0  0  0
   -5.6000   -1.3856    0.0000 C   0  0  0  0  0  0  0  0  0  0  0  0
   -7.2000   -1.3856    0.0000 C   0  0  0  0  0  0  0  0  0  0  0  0
  1  2  2  0  0  0  0
  2  3  1  0  0  0  0
  2 27  1  0  0  0  0
  3  4  1  0  0  0  0
  4  5  1  6  0  0  0
  4 24  1  0  0  0  0
  5  6  1  0  0  0  0
  7  6  1  6  0  0  0
  7  8  1  0  0  0  0
  7 23  1  0  0  0  0
  8  9  1  6  0  0  0
  8 19  1  0  0  0  0
  9 10  1  0  0  0  0
 10 11  1  0  0  0  0
 11 12  1  6  0  0  0
 11 19  1  0  0  0  0
 12 13  2  0  0  0  0
 12 14  1  0  0  0  0
 14 15  1  0  0  0  0
 15 16  1  0  0  0  0
 15 17  1  0  0  0  0
 15 18  1  0  0  0  0
 19 20  1  1  0  0  0
 19 21  1  0  0  0  0
 21 22  1  0  0  0  0
 23 22  1  6  0  0  0
 23 24  1  0  0  0  0
 24 25  1  6  0  0  0
 24 26  1  0  0  0  0
 26 27  2  0  0  0  0
M  END
> <Acceptable>
true

> <IC50>
N/A

$$$$

Generated by Molecular Materials Informatics

 57 60  0  0  0  0  0  0  0  0999 V2000
   -3.7037   -1.3670    0.0000 O   0  0  0  0  0  0  0  0  0  0  0  0
   -3.1604    0.1380    0.0000 C   0  0  0  0  0  0  0  0  0  0  0  0
   -4.5661    0.9021    0.0000 N   0  0  0  0  0  0  0  0  0  0  0  0
   -5.0039   -0.6368    0.0000 C   0  0  0  0  0  0  0  0  0  0  0  0
   -6.5556   -1.0271    0.0000 C   0  0  0  0  0  0  0  0  0  0  0  0
   -7.6694    0.1216    0.0000 C   0  0  0  0  0  0  0  0  0  0  0  0
   -7.2316    1.6605    0.0000 C   0  0  0  0  0  0  0  0  0  0  0  0
   -5.6799    2.0508    0.0000 C   0  0  0  0  0  0  0  0  0  0  0  0
   -6.4004    3.4793    0.0000 C   0  0  0  0  0  0  0  0  0  0  0  0
   -7.9214    2.9826    0.0000 O   0  0  0  0  0  0  0  0  0  0  0  0
   -6.6621    5.0578    0.0000 O   0  0  0  0  0  0  0  0  0  0  0  0
   -6.4411    6.6425    0.0000 C   0  0  0  0  0  0  0  0  0  0  0  0
   -7.9742    7.1000    0.0000 C   0  0  0  0  0  0  0  0  0  0  0  0
   -8.3446    8.6566    0.0000 C   0  0  0  0  0  0  0  0  0  0  0  0
   -9.1371    6.0010    0.0000 C   0  0  0  0  0  0  0  0  0  0  0  0
  -10.6703    6.4586    0.0000 C   0  0  0  0  0  0  0  0  0  0  0  0
  -11.8331    5.3596    0.0000 C   0  0  0  0  0  0  0  0  0  0  0  0
  -13.3663    5.8172    0.0000 C   0  0  0  0  0  0  0  0  0  0  0  0
  -13.7366    7.3738    0.0000 C   0  0  0  0  0  0  0  0  0  0  0  0
  -15.2698    7.8313    0.0000 O   0  0  0  0  0  0  0  0  0  0  0  0
  -12.5738    8.4727    0.0000 C   0  0  0  0  0  0  0  0  0  0  0  0
  -12.9441   10.0293    0.0000 O   0  0  0  0  0  0  0  0  0  0  0  0
  -14.4773   10.4869    0.0000 C   0  0  0  0  0  0  0  0  0  0  0  0
  -11.0406    8.0152    0.0000 C   0  0  0  0  0  0  0  0  0  0  0  0
   -5.7574    8.0891    0.0000 C   0  0  0  0  0  0  0  0  0  0  0  0
   -7.0844    8.9831    0.0000 C   0  0  0  0  0  0  0  0  0  0  0  0
   -4.6735    9.2659    0.0000 C   0  0  0  0  0  0  0  0  0  0  0  0
   -5.6733   10.5150    0.0000 O   0  0  0  0  0  0  0  0  0  0  0  0
   -3.2878   10.0660    0.0000 C   0  0  0  0  0  0  0  0  0  0  0  0
   -1.7266   10.4163    0.0000 C   0  0  0  0  0  0  0  0  0  0  0  0
   -1.8374   12.0124    0.0000 O   0  0  0  0  0  0  0  0  0  0  0  0
   -0.1320   10.2850    0.0000 C   0  0  0  0  0  0  0  0  0  0  0  0
    1.3509    9.6841    0.0000 C   0  0  0  0  0  0  0  0  0  0  0  0
    2.5870    8.6683    0.0000 C   0  0  0  0  0  0  0  0  0  0  0  0
    3.7777    9.7370    0.0000 C   0  0  0  0  0  0  0  0  0  0  0  0
    3.4639    7.3300    0.0000 C   0  0  0  0  0  0  0  0  0  0  0  0
    3.9018    5.7910    0.0000 C   0  0  0  0  0  0  0  0  0  0  0  0
    5.4892    5.9917    0.0000 C   0  0  0  0  0  0  0  0  0  0  0  0
    3.8607    4.1916    0.0000 C   0  0  0  0  0  0  0  0  0  0  0  0
    3.3445    2.6772    0.0000 C   0  0  0  0  0  0  0  0  0  0  0  0
    4.7637    1.9383    0.0000 O   0  0  0  0  0  0  0  0  0  0  0  0
    6.1131    2.7980    0.0000 C   0  0  0  0  0  0  0  0  0  0  0  0
    2.4000    1.3856    0.0000 C   0  0  0  0  0  0  0  0  0  0  0  0
    0.8000    1.3856    0.0000 O   0  0  0  0  0  0  0  0  0  0  0  0
    0.0000    0.0000    0.0000 C   0  0  0  0  0  0  0  0  0  0  0  0
   -0.7242   -1.4267    0.0000 O   0  0  0  0  0  0  0  0  0  0  0  0
   -1.5907   -0.1722    0.0000 C   0  0  0  0  0  0  0  0  0  0  0  0
   -1.6605   -1.7706    0.0000 O   0  0  0  0  0  0  0  0  0  0  0  0
    0.8000   -1.3856    0.0000 C   0  0  0  0  0  0  0  0  0  0  0  0
    0.0000   -2.7713    0.0000 C   0  0  0  0  0  0  0  0  0  0  0  0
    2.4000   -1.3856    0.0000 C   0  0  0  0  0  0  0  0  0  0  0  0
    3.2000    0.0000    0.0000 C   0  0  0  0  0  0  0  0  0  0  0  0
    4.8000    0.0000    0.0000 O   0  0  0  0  0  0  0  0  0  0  0  0
    5.6000   -1.3856    0.0000 C   0  0  0  0  0  0  0  0  0  0  0  0
    0.2383   11.8415    0.0000 C   0  0  0  0  0  0  0  0  0  0  0  0
    1.7715   12.2991    0.0000 C   0  0  0  0  0  0  0  0  0  0  0  0
    2.1418   13.8557    0.0000 C   0  0  0  0  0  0  0  0  0  0  0  0
  1  2  2  0  0  0  0
  2  3  1  0  0  0  0
  2 47  1  0  0  0  0
  3  4  1  0  0  0  0
  3  8  1  0  0  0  0
  4  5  1  0  0  0  0
  5  6  1  0  0  0  0
  6  7  1  0  0  0  0
  7  8  1  0  0  0  0
  8  9  1  0  0  0  0
  9 10  2  0  0  0  0
  9 11  1  0  0  0  0
 11 12  1  0  0  0  0
 12 13  1  0  0  0  0
 12 25  1  0  0  0  0
 13 14  1  0  0  0  0
 13 15  2  0  0  0  0
 15 16  1  0  0  0  0
 16 17  1  0  0  0  0
 16 24  1  0  0  0  0
 17 18  1  0  0  0  0
 18 19  1  0  0  0  0
 19 20  1  0  0  0  0
 19 21  1  0  0  0  0
 21 22  1  0  0  0  0
 21 24  1  0  0  0  0
 22 23  1  0  0  0  0
 25 26  1  0  0  0  0
 25 27  1  0  0  0  0
 27 28  1  0  0  0  0
 27 29  1  0  0  0  0
 29 30  1  0  0  0  0
 30 31  2  0  0  0  0
 30 32  1  0  0  0  0
 32 33  1  0  0  0  0
 32 55  1  6  0  0  0
 33 34  2  0  0  0  0
 34 35  1  0  0  0  0
 34 36  1  0  0  0  0
 36 37  1  0  0  0  0
 37 38  1  0  0  0  0
 37 39  1  0  0  0  0
 39 40  1  0  0  0  0
 40 41  1  0  0  0  0
 40 43  1  0  0  0  0
 41 42  1  0  0  0  0
 43 44  1  0  0  0  0
 43 52  1  0  0  0  0
 44 45  1  0  0  0  0
 45 46  1  1  0  0  0
 45 47  1  0  0  0  0
 45 49  1  0  0  0  0
 47 48  2  0  0  0  0
 49 50  1  1  0  0  0
 49 51  1  0  0  0  0
 51 52  1  0  0  0  0
 52 53  1  0  0  0  0
 53 54  1  0  0  0  0
 55 56  1  0  0  0  0
 56 57  2  0  0  0  0
M  END
> <Acceptable>
true

> <IC50>
N/A

$$$$

Generated by Molecular Materials Informatics

 28 29  0  0  0  0  0  0  0  0999 V2000
    2.4000    6.9282    0.0000 F   0  0  0  0  0  0  0  0  0  0  0  0
    0.8000    6.9282    0.0000 C   0  0  0  0  0  0  0  0  0  0  0  0
    0.0000    8.3138    0.0000 F   0  0  0  0  0  0  0  0  0  0  0  0
    1.6000    8.3138    0.0000 F   0  0  0  0  0  0  0  0  0  0  0  0
    0.0000    5.5426    0.0000 C   0  0  0  0  0  0  0  0  0  0  0  0
    0.8000    4.1569    0.0000 O   0  0  0  0  0  0  0  0  0  0  0  0
    0.0000    2.7713    0.0000 C   0  0  0  0  0  0  0  0  0  0  0  0
   -1.6000    2.7713    0.0000 C   0  0  0  0  0  0  0  0  0  0  0  0
   -2.4000    1.3856    0.0000 C   0  0  0  0  0  0  0  0  0  0  0  0
   -1.6000    0.0000    0.0000 C   0  0  0  0  0  0  0  0  0  0  0  0
   -2.4000   -1.3856    0.0000 O   0  0  0  0  0  0  0  0  0  0  0  0
   -4.0000   -1.3856    0.0000 C   0  0  0  0  0  0  0  0  0  0  0  0
   -4.8000   -2.7713    0.0000 C   0  0  0  0  0  0  0  0  0  0  0  0
   -4.0000   -4.1569    0.0000 F   0  0  0  0  0  0  0  0  0  0  0  0
   -6.4000   -2.7713    0.0000 F   0  0  0  0  0  0  0  0  0  0  0  0
   -5.6000   -4.1569    0.0000 F   0  0  0  0  0  0  0  0  0  0  0  0
    0.0000    0.0000    0.0000 C   0  0  0  0  0  0  0  0  0  0  0  0
    0.8000    1.3856    0.0000 C   0  0  0  0  0  0  0  0  0  0  0  0
    0.8000   -1.3856    0.0000 C   0  0  0  0  0  0  0  0  0  0  0  0
    0.0000   -2.7713    0.0000 O   0  0  0  0  0  0  0  0  0  0  0  0
    2.4000   -1.3856    0.0000 N   0  0  0  0  0  0  0  0  0  0  0  0
    3.2000   -2.7713    0.0000 C   0  0  0  0  0  0  0  0  0  0  0  0
    4.8000   -2.7713    0.0000 C   0  0  0  0  0  0  0  0  0  0  0  0
    5.6000   -4.1569    0.0000 N   0  0  0  0  0  0  0  0  0  0  0  0
    7.2000   -4.1569    0.0000 C   0  0  0  0  0  0  0  0  0  0  0  0
    8.0000   -2.7713    0.0000 C   0  0  0  0  0  0  0  0  0  0  0  0
    7.2000   -1.3856    0.0000 C   0  0  0  0  0  0  0  0  0  0  0  0
    5.6000   -1.3856    0.0000 C   0  0  0  0  0  0  0  0  0  0  0  0
  1  2  1  0  0  0  0
  2  3  1  0  0  0  0
  2  4  1  0  0  0  0
  2  5  1  0  0  0  0
  5  6  1  0  0  0  0
  6  7  1  0  0  0  0
  7  8  1  0  0  0  0
  7 18  2  0  0  0  0
  8  9  2  0  0  0  0
  9 10  1  0  0  0  0
 10 11  1  0  0  0  0
 10 17  2  0  0  0  0
 11 12  1  0  0  0  0
 12 13  1  0  0  0  0
 13 14  1  0  0  0  0
 13 15  1  0  0  0  0
 13 16  1  0  0  0  0
 17 18  1  0  0  0  0
 17 19  1  0  0  0  0
 19 20  2  0  0  0  0
 19 21  1  0  0  0  0
 21 22  1  0  0  0  0
 23 22  1  1  0  0  0
 23 24  1  0  0  0  0
 23 28  1  0  0  0  0
 24 25  1  0  0  0  0
 25 26  1  0  0  0  0
 26 27  1  0  0  0  0
 27 28  1  0  0  0  0
M  END
> <Acceptable>
false

> <IC50>
3.91

$$$$

Generated by Molecular Materials Informatics

 30 33  0  0  0  0  0  0  0  0999 V2000
   -5.5426   -3.2000    0.0000 F   0  0  0  0  0  0  0  0  0  0  0  0
    0.0000    6.4000    0.0000 F   0  0  0  0  0  0  0  0  0  0  0  0
    1.3856   -0.8000    0.0000 N   0  0  0  0  0  0  0  0  0  0  0  0
    4.1569   -2.4000    0.0000 N   0  0  0  0  0  0  0  0  0  0  0  0
    2.7713    0.0000    0.0000 C   0  0  0  0  0  0  0  0  0  0  0  0
    1.3856   -2.4000    0.0000 C   0  0  0  0  0  0  0  0  0  0  0  0
    0.0000    0.0000    0.0000 C   0  0  0  0  0  0  0  0  0  0  0  0
    4.1569   -0.8000    0.0000 C   0  0  0  0  0  0  0  0  0  0  0  0
    2.7713   -3.2000    0.0000 C   0  0  0  0  0  0  0  0  0  0  0  0
    5.5426   -3.2000    0.0000 C   0  0  0  0  0  0  0  0  0  0  0  0
   -1.3856   -0.8000    0.0000 C   0  0  0  0  0  0  0  0  0  0  0  0
    0.0000    1.6000    0.0000 C   0  0  0  0  0  0  0  0  0  0  0  0
    6.9282   -2.4000    0.0000 C   0  0  0  0  0  0  0  0  0  0  0  0
   -1.3856   -2.4000    0.0000 C   0  0  0  0  0  0  0  0  0  0  0  0
   -1.3856    2.4000    0.0000 C   0  0  0  0  0  0  0  0  0  0  0  0
   -2.7713    0.0000    0.0000 C   0  0  0  0  0  0  0  0  0  0  0  0
    1.3856    2.4000    0.0000 C   0  0  0  0  0  0  0  0  0  0  0  0
   -2.7713   -3.2000    0.0000 C   0  0  0  0  0  0  0  0  0  0  0  0
   -1.3856    4.0000    0.0000 C   0  0  0  0  0  0  0  0  0  0  0  0
   -4.1569   -0.8000    0.0000 C   0  0  0  0  0  0  0  0  0  0  0  0
    1.3856    4.0000    0.0000 C   0  0  0  0  0  0  0  0  0  0  0  0
    8.3138   -3.2000    0.0000 C   0  0  0  0  0  0  0  0  0  0  0  0
   -4.1569   -2.4000    0.0000 C   0  0  0  0  0  0  0  0  0  0  0  0
    0.0000    4.8000    0.0000 C   0  0  0  0  0  0  0  0  0  0  0  0
    9.6995   -2.4000    0.0000 C   0  0  0  0  0  0  0  0  0  0  0  0
    9.6995   -0.8000    0.0000 C   0  0  0  0  0  0  0  0  0  0  0  0
   11.0851   -3.2000    0.0000 C   0  0  0  0  0  0  0  0  0  0  0  0
   11.0851    0.0000    0.0000 C   0  0  0  0  0  0  0  0  0  0  0  0
   12.4708   -2.4000    0.0000 C   0  0  0  0  0  0  0  0  0  0  0  0
   12.4708   -0.8000    0.0000 C   0  0  0  0  0  0  0  0  0  0  0  0
  1 23  1  0  0  0  0
  2 24  1  0  0  0  0
  3  5  1  0  0  0  0
  3  6  1  0  0  0  0
  3  7  1  1  0  0  0
  4  8  1  0  0  0  0
  4  9  1  0  0  0  0
  4 10  1  6  0  0  0
  5  8  1  0  0  0  0
  6  9  1  0  0  0  0
  7 11  1  0  0  0  0
  7 12  1  0  0  0  0
 10 13  1  0  0  0  0
 11 14  2  0  0  0  0
 11 16  1  0  0  0  0
 12 15  2  0  0  0  0
 12 17  1  0  0  0  0
 13 22  2  0  0  0  0
 14 18  1  0  0  0  0
 15 19  1  0  0  0  0
 16 20  2  0  0  0  0
 17 21  2  0  0  0  0
 18 23  2  0  0  0  0
 19 24  2  0  0  0  0
 20 23  1  0  0  0  0
 21 24  1  0  0  0  0
 22 25  1  0  0  0  0
 25 26  2  0  0  0  0
 25 27  1  0  0  0  0
 26 28  1  0  0  0  0
 27 29  2  0  0  0  0
 28 30  2  0  0  0  0
 29 30  1  0  0  0  0
M  END
> <Acceptable>
false

> <IC50>
<10

$$$$

Generated by Molecular Materials Informatics

 22 23  0  0  0  0  0  0  0  0999 V2000
   -5.5426    1.6000    0.0000 C   0  0  0  0  0  0  0  0  0  0  0  0
   -6.9282    2.4000    0.0000 C   0  0  0  0  0  0  0  0  0  0  0  0
   -4.1569    2.4000    0.0000 O   0  0  0  0  0  0  0  0  0  0  0  0
   -5.5426    0.0000    0.0000 C   0  0  0  0  0  0  0  0  0  0  0  0
   -6.9282    4.0000    0.0000 C   0  0  0  0  0  0  0  0  0  0  0  0
   -8.3138    1.6000    0.0000 C   0  0  0  0  0  0  0  0  0  0  0  0
   -2.7713    1.6000    0.0000 C   0  0  0  0  0  0  0  0  0  0  0  0
   -6.9282   -0.8000    0.0000 C   0  0  0  0  0  0  0  0  0  0  0  0
   -8.3138    4.8000    0.0000 C   0  0  0  0  0  0  0  0  0  0  0  0
   -9.6995    2.4000    0.0000 C   0  0  0  0  0  0  0  0  0  0  0  0
   -2.7713    0.0000    0.0000 C   0  0  0  0  0  0  0  0  0  0  0  0
   -1.3856    2.4000    0.0000 C   0  0  0  0  0  0  0  0  0  0  0  0
   -6.9282   -2.4000    0.0000 N   0  0  0  0  0  0  0  0  0  0  0  0
   -9.6995    4.0000    0.0000 C   0  0  0  0  0  0  0  0  0  0  0  0
   -1.3856   -0.8000    0.0000 C   0  0  0  0  0  0  0  0  0  0  0  0
    0.0000    1.6000    0.0000 C   0  0  0  0  0  0  0  0  0  0  0  0
   -8.3138   -3.2000    0.0000 C   0  0  0  0  0  0  0  0  0  0  0  0
    0.0000    0.0000    0.0000 C   0  0  0  0  0  0  0  0  0  0  0  0
    1.3856   -0.8000    0.0000 C   0  0  0  0  0  0  0  0  0  0  0  0
    2.7713    0.0000    0.0000 F   0  0  0  0  0  0  0  0  0  0  0  0
    1.3856   -2.4000    0.0000 F   0  0  0  0  0  0  0  0  0  0  0  0
    2.7713   -1.6000    0.0000 F   0  0  0  0  0  0  0  0  0  0  0  0
  1  2  1  0  0  0  0
  1  3  1  6  0  0  0
  1  4  1  0  0  0  0
  2  5  2  0  0  0  0
  2  6  1  0  0  0  0
  3  7  1  0  0  0  0
  4  8  1  0  0  0  0
  5  9  1  0  0  0  0
  6 10  2  0  0  0  0
  7 11  2  0  0  0  0
  7 12  1  0  0  0  0
  8 13  1  0  0  0  0
  9 14  2  0  0  0  0
 10 14  1  0  0  0  0
 11 15  1  0  0  0  0
 12 16  2  0  0  0  0
 13 17  1  0  0  0  0
 15 18  2  0  0  0  0
 16 18  1  0  0  0  0
 18 19  1  0  0  0  0
 19 20  1  0  0  0  0
 19 21  1  0  0  0  0
 19 22  1  0  0  0  0
M  END
> <Acceptable>
false

> <IC50>
0.83

$$$$

Generated by Molecular Materials Informatics

 35 39  0  0  0  0  0  0  0  0999 V2000
    8.3138   -4.8000    0.0000 F   0  0  0  0  0  0  0  0  0  0  0  0
    8.3138   -3.2000    0.0000 C   0  0  0  0  0  0  0  0  0  0  0  0
    9.6995   -2.4000    0.0000 C   0  0  0  0  0  0  0  0  0  0  0  0
    9.6995   -0.8000    0.0000 C   0  0  0  0  0  0  0  0  0  0  0  0
    8.3138    0.0000    0.0000 C   0  0  0  0  0  0  0  0  0  0  0  0
    6.9282   -0.8000    0.0000 C   0  0  0  0  0  0  0  0  0  0  0  0
    6.9282   -2.4000    0.0000 C   0  0  0  0  0  0  0  0  0  0  0  0
    8.3138    1.6000    0.0000 C   0  0  0  0  0  0  0  0  0  0  0  0
    6.9282    2.4000    0.0000 C   0  0  0  0  0  0  0  0  0  0  0  0
    5.5426    1.6000    0.0000 C   0  0  0  0  0  0  0  0  0  0  0  0
    4.1569    2.4000    0.0000 C   0  0  0  0  0  0  0  0  0  0  0  0
    2.7713    1.6000    0.0000 N   0  0  0  0  0  0  0  0  0  0  0  0
    1.3856    2.4000    0.0000 C   0  0  0  0  0  0  0  0  0  0  0  0
    0.0000    1.6000    0.0000 C   0  0  0  0  0  0  0  0  0  0  0  0
    0.0000    0.0000    0.0000 C   0  0  0  0  0  0  0  0  0  0  0  0
   -1.4617    0.6508    0.0000 N   0  0  0  0  0  0  0  0  0  0  0  0
   -2.5323   -0.5383    0.0000 C   0  0  0  0  0  0  0  0  0  0  0  0
   -1.7323   -1.9239    0.0000 N   0  0  0  0  0  0  0  0  0  0  0  0
   -0.1672   -1.5912    0.0000 C   0  0  0  0  0  0  0  0  0  0  0  0
    1.0218   -2.6618    0.0000 O   0  0  0  0  0  0  0  0  0  0  0  0
   -1.7943    2.2158    0.0000 C   0  0  0  0  0  0  0  0  0  0  0  0
   -0.6053    3.2864    0.0000 C   0  0  0  0  0  0  0  0  0  0  0  0
   -0.9380    4.8515    0.0000 C   0  0  0  0  0  0  0  0  0  0  0  0
   -2.4596    5.3459    0.0000 C   0  0  0  0  0  0  0  0  0  0  0  0
   -3.6487    4.2753    0.0000 C   0  0  0  0  0  0  0  0  0  0  0  0
   -3.3160    2.7102    0.0000 C   0  0  0  0  0  0  0  0  0  0  0  0
    1.3856   -0.8000    0.0000 C   0  0  0  0  0  0  0  0  0  0  0  0
    2.7713    0.0000    0.0000 C   0  0  0  0  0  0  0  0  0  0  0  0
    9.6995    2.4000    0.0000 C   0  0  0  0  0  0  0  0  0  0  0  0
   11.0851    1.6000    0.0000 C   0  0  0  0  0  0  0  0  0  0  0  0
   12.4708    2.4000    0.0000 C   0  0  0  0  0  0  0  0  0  0  0  0
   12.4708    4.0000    0.0000 C   0  0  0  0  0  0  0  0  0  0  0  0
   13.8564    4.8000    0.0000 F   0  0  0  0  0  0  0  0  0  0  0  0
   11.0851    4.8000    0.0000 C   0  0  0  0  0  0  0  0  0  0  0  0
    9.6995    4.0000    0.0000 C   0  0  0  0  0  0  0  0  0  0  0  0
  1  2  1  0  0  0  0
  2  3  1  0  0  0  0
  2  7  2  0  0  0  0
  3  4  2  0  0  0  0
  4  5  1  0  0  0  0
  5  6  2  0  0  0  0
  5  8  1  0  0  0  0
  6  7  1  0  0  0  0
  8  9  1  0  0  0  0
  8 29  1  0  0  0  0
  9 10  1  0  0  0  0
 10 11  1  0  0  0  0
 12 11  1  1  0  0  0
 12 13  1  0  0  0  0
 12 28  1  0  0  0  0
 13 14  1  0  0  0  0
 14 15  1  0  0  0  0
 15 16  1  0  0  0  0
 15 19  1  0  0  0  0
 15 27  1  1  0  0  0
 16 17  1  0  0  0  0
 16 21  1  0  0  0  0
 17 18  1  0  0  0  0
 18 19  1  0  0  0  0
 19 20  2  0  0  0  0
 21 22  1  0  0  0  0
 21 26  2  0  0  0  0
 22 23  2  0  0  0  0
 23 24  1  0  0  0  0
 24 25  2  0  0  0  0
 25 26  1  0  0  0  0
 27 28  1  0  0  0  0
 29 30  1  0  0  0  0
 29 35  2  0  0  0  0
 30 31  2  0  0  0  0
 31 32  1  0  0  0  0
 32 33  1  0  0  0  0
 32 34  2  0  0  0  0
 34 35  1  0  0  0  0
M  END
> <Acceptable>
false

> <IC50>
0.003

$$$$

Generated by Molecular Materials Informatics

 19 19  0  0  0  0  0  0  0  0999 V2000
   -2.7713    0.0000    0.0000 F   0  0  0  0  0  0  0  0  0  0  0  0
   -1.3856    0.8000    0.0000 C   0  0  0  0  0  0  0  0  0  0  0  0
   -1.3856    2.4000    0.0000 F   0  0  0  0  0  0  0  0  0  0  0  0
   -2.7713    1.6000    0.0000 F   0  0  0  0  0  0  0  0  0  0  0  0
    0.0000    0.0000    0.0000 C   0  0  0  0  0  0  0  0  0  0  0  0
    1.3856    0.8000    0.0000 C   0  0  0  0  0  0  0  0  0  0  0  0
    2.7713    0.0000    0.0000 C   0  0  0  0  0  0  0  0  0  0  0  0
    4.1569    0.8000    0.0000 N   0  0  0  0  0  0  0  0  0  0  0  0
    5.5426    0.0000    0.0000 C   0  0  0  0  0  0  0  0  0  0  0  0
    5.5426   -1.6000    0.0000 O   0  0  0  0  0  0  0  0  0  0  0  0
    6.9282    0.8000    0.0000 C   0  0  0  0  0  0  0  0  0  0  0  0
    6.9282    2.4000    0.0000 C   0  0  0  0  0  0  0  0  0  0  0  0
    8.3138    0.0000    0.0000 C   0  0  0  0  0  0  0  0  0  0  0  0
    2.7713   -1.6000    0.0000 C   0  0  0  0  0  0  0  0  0  0  0  0
    1.3856   -2.4000    0.0000 C   0  0  0  0  0  0  0  0  0  0  0  0
    0.0000   -1.6000    0.0000 C   0  0  0  0  0  0  0  0  0  0  0  0
   -1.3856   -2.4000    0.0000 N   0  3  0  0  0  0  0  0  0  0  0  0
   -2.7713   -1.6000    0.0000 O   0  0  0  0  0  0  0  0  0  0  0  0
   -1.3856   -4.0000    0.0000 O   0  5  0  0  0  0  0  0  0  0  0  0
  1  2  1  0  0  0  0
  2  3  1  0  0  0  0
  2  4  1  0  0  0  0
  2  5  1  0  0  0  0
  5  6  1  0  0  0  0
  5 16  2  0  0  0  0
  6  7  2  0  0  0  0
  7  8  1  0  0  0  0
  7 14  1  0  0  0  0
  8  9  1  0  0  0  0
  9 10  2  0  0  0  0
  9 11  1  0  0  0  0
 11 12  1  0  0  0  0
 11 13  1  0  0  0  0
 14 15  2  0  0  0  0
 15 16  1  0  0  0  0
 16 17  1  0  0  0  0
 17 18  2  0  0  0  0
 17 19  1  0  0  0  0
M  CHG  2  17   1  19  -1
M  END
> <Acceptable>
true

> <IC50>
N/A

$$$$

Generated by Molecular Materials Informatics

 30 32  0  0  0  0  0  0  0  0999 V2000
   -4.2824    4.7561    0.0000 F   0  0  0  0  0  0  0  0  0  0  0  0
   -3.2118    3.5671    0.0000 C   0  0  0  0  0  0  0  0  0  0  0  0
   -3.7063    2.0454    0.0000 C   0  0  0  0  0  0  0  0  0  0  0  0
   -2.6356    0.8564    0.0000 C   0  0  0  0  0  0  0  0  0  0  0  0
   -1.0706    1.1890    0.0000 C   0  0  0  0  0  0  0  0  0  0  0  0
   -0.5762    2.7107    0.0000 C   0  0  0  0  0  0  0  0  0  0  0  0
   -1.6468    3.8998    0.0000 C   0  0  0  0  0  0  0  0  0  0  0  0
    0.0000    0.0000    0.0000 C   0  0  0  0  0  0  0  0  0  0  0  0
   -0.3327   -1.5650    0.0000 C   0  0  0  0  0  0  0  0  0  0  0  0
   -1.7183   -2.3650    0.0000 C   0  0  0  0  0  0  0  0  0  0  0  0
   -1.7183   -3.9650    0.0000 C   0  0  0  0  0  0  0  0  0  0  0  0
   -0.3327   -4.7650    0.0000 C   0  0  0  0  0  0  0  0  0  0  0  0
    1.0530   -3.9650    0.0000 C   0  0  0  0  0  0  0  0  0  0  0  0
    1.0530   -2.3650    0.0000 C   0  0  0  0  0  0  0  0  0  0  0  0
    2.2420   -1.2944    0.0000 N   0  0  0  0  0  0  0  0  0  0  0  0
    1.5912    0.1672    0.0000 C   0  0  0  0  0  0  0  0  0  0  0  0
    2.1385    1.6708    0.0000 C   0  0  0  0  0  0  0  0  0  0  0  0
    3.6420    2.2180    0.0000 C   0  0  0  0  0  0  0  0  0  0  0  0
    4.8676    1.1895    0.0000 C   0  0  0  0  0  0  0  0  0  0  0  0
    4.5898   -0.3862    0.0000 O   0  0  0  0  0  0  0  0  0  0  0  0
    6.3712    1.7368    0.0000 C   0  0  0  0  0  0  0  0  0  0  0  0
    6.6490    3.3125    0.0000 C   0  0  0  0  0  0  0  0  0  0  0  0
    5.4233    4.3409    0.0000 O   0  0  0  0  0  0  0  0  0  0  0  0
    8.1525    3.8597    0.0000 C   0  0  0  0  0  0  0  0  0  0  0  0
    8.4303    5.4354    0.0000 C   0  0  0  0  0  0  0  0  0  0  0  0
    7.2047    6.4638    0.0000 O   0  0  0  0  0  0  0  0  0  0  0  0
    9.9338    5.9826    0.0000 O   0  0  0  0  0  0  0  0  0  0  0  0
    3.5989   -2.1423    0.0000 C   0  0  0  0  0  0  0  0  0  0  0  0
    5.0116   -1.3911    0.0000 C   0  0  0  0  0  0  0  0  0  0  0  0
    3.5431   -3.7413    0.0000 C   0  0  0  0  0  0  0  0  0  0  0  0
  1  2  1  0  0  0  0
  2  3  1  0  0  0  0
  2  7  2  0  0  0  0
  3  4  2  0  0  0  0
  4  5  1  0  0  0  0
  5  6  2  0  0  0  0
  5  8  1  0  0  0  0
  6  7  1  0  0  0  0
  8  9  1  0  0  0  0
  8 16  2  0  0  0  0
  9 10  1  0  0  0  0
  9 14  2  0  0  0  0
 10 11  2  0  0  0  0
 11 12  1  0  0  0  0
 12 13  2  0  0  0  0
 13 14  1  0  0  0  0
 14 15  1  0  0  0  0
 15 16  1  0  0  0  0
 15 28  1  0  0  0  0
 16 17  1  0  0  0  0
 17 18  2  0  0  0  0
 18 19  1  0  0  0  0
 19 20  1  6  0  0  0
 19 21  1  0  0  0  0
 21 22  1  0  0  0  0
 22 23  1  1  0  0  0
 22 24  1  0  0  0  0
 24 25  1  0  0  0  0
 25 26  2  0  0  0  0
 25 27  1  0  0  0  0
 28 29  1  0  0  0  0
 28 30  1  0  0  0  0
M  END
> <Acceptable>
true

> <IC50>
N/A

$$$$

Generated by Molecular Materials Informatics

 22 22  0  0  0  0  0  0  0  0999 V2000
   -2.4000    1.3856    0.0000 F   0  0  0  0  0  0  0  0  0  0  0  0
   -1.6000    0.0000    0.0000 C   0  0  0  0  0  0  0  0  0  0  0  0
   -2.4000   -1.3856    0.0000 F   0  0  0  0  0  0  0  0  0  0  0  0
   -3.2000    0.0000    0.0000 F   0  0  0  0  0  0  0  0  0  0  0  0
    0.0000    0.0000    0.0000 C   0  0  0  0  0  0  0  0  0  0  0  0
    0.8000   -1.3856    0.0000 C   0  0  0  0  0  0  0  0  0  0  0  0
    2.4000   -1.3856    0.0000 C   0  0  0  0  0  0  0  0  0  0  0  0
    3.2000    0.0000    0.0000 C   0  0  0  0  0  0  0  0  0  0  0  0
    2.4000    1.3856    0.0000 C   0  0  0  0  0  0  0  0  0  0  0  0
    0.8000    1.3856    0.0000 C   0  0  0  0  0  0  0  0  0  0  0  0
    4.8000    0.0000    0.0000 C   0  0  0  0  0  0  0  0  0  0  0  0
    5.6000    1.3856    0.0000 N   0  0  0  0  0  0  0  0  0  0  0  0
    7.2000    1.3856    0.0000 O   0  0  0  0  0  0  0  0  0  0  0  0
    8.0000    2.7713    0.0000 C   0  0  0  0  0  0  0  0  0  0  0  0
    9.6000    2.7713    0.0000 C   0  0  0  0  0  0  0  0  0  0  0  0
   10.4000    4.1569    0.0000 N   0  0  0  0  0  0  0  0  0  0  0  0
    5.6000   -1.3856    0.0000 C   0  0  0  0  0  0  0  0  0  0  0  0
    7.2000   -1.3856    0.0000 C   0  0  0  0  0  0  0  0  0  0  0  0
    8.0000   -2.7713    0.0000 C   0  0  0  0  0  0  0  0  0  0  0  0
    9.6000   -2.7713    0.0000 C   0  0  0  0  0  0  0  0  0  0  0  0
   10.4000   -4.1569    0.0000 O   0  0  0  0  0  0  0  0  0  0  0  0
   12.0000   -4.1569    0.0000 C   0  0  0  0  0  0  0  0  0  0  0  0
  1  2  1  0  0  0  0
  2  3  1  0  0  0  0
  2  4  1  0  0  0  0
  2  5  1  0  0  0  0
  5  6  1  0  0  0  0
  5 10  2  0  0  0  0
  6  7  2  0  0  0  0
  7  8  1  0  0  0  0
  8  9  2  0  0  0  0
  8 11  1  0  0  0  0
  9 10  1  0  0  0  0
 11 12  2  0  0  0  0
 11 17  1  0  0  0  0
 12 13  1  0  0  0  0
 13 14  1  0  0  0  0
 14 15  1  0  0  0  0
 15 16  1  0  0  0  0
 17 18  1  0  0  0  0
 18 19  1  0  0  0  0
 19 20  1  0  0  0  0
 20 21  1  0  0  0  0
 21 22  1  0  0  0  0
M  END
> <Acceptable>
false

> <IC50>
3.8

$$$$

Generated by Molecular Materials Informatics

 21 22  0  0  0  0  0  0  0  0999 V2000
    0.0000    2.7713    0.0000 Cl  0  0  0  0  0  0  0  0  0  0  0  0
    0.8000    1.3856    0.0000 C   0  0  0  0  0  0  0  0  0  0  0  0
    2.4000    1.3856    0.0000 C   0  0  0  0  0  0  0  0  0  0  0  0
    3.2000    0.0000    0.0000 C   0  0  0  0  0  0  0  0  0  0  0  0
    4.8000    0.0000    0.0000 N   0  0  0  0  0  0  0  0  0  0  0  0
    5.6000    1.3856    0.0000 C   0  0  0  0  0  0  0  0  0  0  0  0
    7.2000    1.3856    0.0000 C   0  0  0  0  0  0  0  0  0  0  0  0
    8.1405    2.6801    0.0000 O   0  0  0  0  0  0  0  0  0  0  0  0
    9.6621    2.1856    0.0000 C   0  0  0  0  0  0  0  0  0  0  0  0
    9.6621    0.5856    0.0000 C   0  0  0  0  0  0  0  0  0  0  0  0
    8.1405    0.0912    0.0000 C   0  0  0  0  0  0  0  0  0  0  0  0
    2.4000   -1.3856    0.0000 C   0  0  0  0  0  0  0  0  0  0  0  0
    0.8000   -1.3856    0.0000 C   0  0  0  0  0  0  0  0  0  0  0  0
    0.0000    0.0000    0.0000 C   0  0  0  0  0  0  0  0  0  0  0  0
   -1.6000    0.0000    0.0000 S   0  0  0  0  0  0  0  0  0  0  0  0
   -1.6000    1.6000    0.0000 O   0  0  0  0  0  0  0  0  0  0  0  0
   -1.6000   -1.6000    0.0000 O   0  0  0  0  0  0  0  0  0  0  0  0
   -3.2000    0.0000    0.0000 N   0  0  0  0  0  0  0  0  0  0  0  0
    3.2000   -2.7713    0.0000 C   0  0  0  0  0  0  0  0  0  0  0  0
    4.8000   -2.7713    0.0000 O   0  0  0  0  0  0  0  0  0  0  0  0
    2.4000   -4.1569    0.0000 O   0  0  0  0  0  0  0  0  0  0  0  0
  1  2  1  0  0  0  0
  2  3  1  0  0  0  0
  2 14  2  0  0  0  0
  3  4  2  0  0  0  0
  4  5  1  0  0  0  0
  4 12  1  0  0  0  0
  5  6  1  0  0  0  0
  6  7  1  0  0  0  0
  7  8  1  0  0  0  0
  7 11  2  0  0  0  0
  8  9  1  0  0  0  0
  9 10  2  0  0  0  0
 10 11  1  0  0  0  0
 12 13  2  0  0  0  0
 12 19  1  0  0  0  0
 13 14  1  0  0  0  0
 14 15  1  0  0  0  0
 15 16  2  0  0  0  0
 15 17  2  0  0  0  0
 15 18  1  0  0  0  0
 19 20  2  0  0  0  0
 19 21  1  0  0  0  0
M  END
> <Acceptable>
true

> <IC50>
N/A

$$$$

Generated by Molecular Materials Informatics

 12 12  0  0  0  0  0  0  0  0999 V2000
   -3.0070   -1.0945    0.0000 O   0  0  0  0  0  0  0  0  0  0  0  0
   -3.9549    1.5097    0.0000 O   0  0  0  0  0  0  0  0  0  0  0  0
   -0.9478   -2.6042    0.0000 N   0  0  0  0  0  0  0  0  0  0  0  0
    0.0000    0.0000    0.0000 C   0  0  0  0  0  0  0  0  0  0  0  0
    0.8000   -1.3856    0.0000 C   0  0  0  0  0  0  0  0  0  0  0  0
    0.8000    1.3856    0.0000 C   0  0  0  0  0  0  0  0  0  0  0  0
    2.4000   -1.3856    0.0000 C   0  0  0  0  0  0  0  0  0  0  0  0
    2.4000    1.3856    0.0000 C   0  0  0  0  0  0  0  0  0  0  0  0
    3.2000    0.0000    0.0000 C   0  0  0  0  0  0  0  0  0  0  0  0
   -1.2257    1.0285    0.0000 C   0  0  0  0  0  0  0  0  0  0  0  0
   -1.2257   -1.0285    0.0000 C   0  0  0  0  0  0  0  0  0  0  0  0
   -2.7292    0.4812    0.0000 C   0  0  0  0  0  0  0  0  0  0  0  0
  1 12  1  0  0  0  0
  2 12  2  0  0  0  0
  3 11  1  0  0  0  0
  4  5  1  0  0  0  0
  4  6  1  0  0  0  0
  4 10  1  0  0  0  0
  4 11  1  0  0  0  0
  5  7  1  0  0  0  0
  6  8  1  0  0  0  0
  7  9  1  0  0  0  0
  8  9  1  0  0  0  0
 10 12  1  0  0  0  0
M  END
> <Acceptable>
true

> <IC50>
>100

$$$$

Generated by Molecular Materials Informatics

 18 19  0  0  0  0  0  0  0  0999 V2000
   -3.2000    2.7713    0.0000 O   0  0  0  0  0  0  0  0  0  0  0  0
   -2.4000    1.3856    0.0000 C   0  0  0  0  0  0  0  0  0  0  0  0
   -3.2000    0.0000    0.0000 N   0  0  0  0  0  0  0  0  0  0  0  0
   -2.4000   -1.3856    0.0000 C   0  0  0  0  0  0  0  0  0  0  0  0
   -3.2000   -2.7713    0.0000 N   0  0  0  0  0  0  0  0  0  0  0  0
   -0.8000   -1.3856    0.0000 N   0  0  0  0  0  0  0  0  0  0  0  0
    0.0000    0.0000    0.0000 C   0  0  0  0  0  0  0  0  0  0  0  0
    1.5650    0.3327    0.0000 N   0  0  0  0  0  0  0  0  0  0  0  0
    1.7323    1.9239    0.0000 C   0  0  0  0  0  0  0  0  0  0  0  0
    0.2706    2.5747    0.0000 N   0  0  0  0  0  0  0  0  0  0  0  0
   -0.8000    1.3856    0.0000 C   0  0  0  0  0  0  0  0  0  0  0  0
    2.7541   -0.7380    0.0000 C   0  0  0  0  0  0  0  0  0  0  0  0
    4.2758   -0.2435    0.0000 O   0  0  0  0  0  0  0  0  0  0  0  0
    5.4648   -1.3141    0.0000 C   0  0  0  0  0  0  0  0  0  0  0  0
    5.1321   -2.8792    0.0000 C   0  0  0  0  0  0  0  0  0  0  0  0
    6.3212   -3.9498    0.0000 O   0  0  0  0  0  0  0  0  0  0  0  0
    6.9865   -0.8197    0.0000 C   0  0  0  0  0  0  0  0  0  0  0  0
    8.1755   -1.8903    0.0000 O   0  0  0  0  0  0  0  0  0  0  0  0
  1  2  1  0  0  0  0
  2  3  1  0  0  0  0
  2 11  2  0  0  0  0
  3  4  2  0  0  0  0
  4  5  1  0  0  0  0
  4  6  1  0  0  0  0
  6  7  2  0  0  0  0
  7  8  1  0  0  0  0
  7 11  1  0  0  0  0
  8  9  1  0  0  0  0
  8 12  1  0  0  0  0
  9 10  2  0  0  0  0
 10 11  1  0  0  0  0
 12 13  1  0  0  0  0
 13 14  1  0  0  0  0
 14 15  1  0  0  0  0
 14 17  1  0  0  0  0
 15 16  1  0  0  0  0
 17 18  1  0  0  0  0
M  END
> <Acceptable>
true

> <IC50>
N/A

$$$$

Generated by Molecular Materials Informatics

 27 30  0  0  0  0  0  0  0  0999 V2000
    4.1569    2.4000    0.0000 F   0  0  0  0  0  0  0  0  0  0  0  0
    2.7713    1.6000    0.0000 C   0  0  0  0  0  0  0  0  0  0  0  0
    1.3856    2.4000    0.0000 C   0  0  0  0  0  0  0  0  0  0  0  0
    0.0000    1.6000    0.0000 C   0  0  0  0  0  0  0  0  0  0  0  0
    0.0000    0.0000    0.0000 C   0  0  0  0  0  0  0  0  0  0  0  0
   -1.3856   -0.8000    0.0000 N   0  3  0  0  0  0  0  0  0  0  0  0
   -2.7713    0.0000    0.0000 C   0  0  0  0  0  0  0  0  0  0  0  0
   -2.7713    1.6000    0.0000 C   0  0  0  0  0  0  0  0  0  0  0  0
   -1.3856    2.4000    0.0000 C   0  0  0  0  0  0  0  0  0  0  0  0
   -1.3856    4.0000    0.0000 O   0  0  0  0  0  0  0  0  0  0  0  0
   -4.1569    2.4000    0.0000 C   0  0  0  0  0  0  0  0  0  0  0  0
   -4.1569    4.0000    0.0000 O   0  0  0  0  0  0  0  0  0  0  0  0
   -5.5426    1.6000    0.0000 O   0  0  0  0  0  0  0  0  0  0  0  0
   -1.3856   -2.4000    0.0000 C   0  0  0  0  0  0  0  0  0  0  0  0
   -2.1856   -3.7856    0.0000 C   0  0  0  0  0  0  0  0  0  0  0  0
   -0.5856   -3.7856    0.0000 C   0  0  0  0  0  0  0  0  0  0  0  0
    1.3856   -0.8000    0.0000 C   0  0  0  0  0  0  0  0  0  0  0  0
    1.3856   -2.4000    0.0000 O   0  0  0  0  0  0  0  0  0  0  0  0
    2.7713   -3.2000    0.0000 C   0  0  0  0  0  0  0  0  0  0  0  0
    2.7713    0.0000    0.0000 C   0  0  0  0  0  0  0  0  0  0  0  0
    4.1569   -0.8000    0.0000 N   0  0  0  0  0  0  0  0  0  0  0  0
    4.1569   -2.4000    0.0000 C   0  0  0  0  0  0  0  0  0  0  0  0
    5.5426   -3.2000    0.0000 C   0  0  0  0  0  0  0  0  0  0  0  0
    6.9282   -2.4000    0.0000 N   0  0  0  0  0  0  0  0  0  0  0  0
    6.9282   -0.8000    0.0000 C   0  0  0  0  0  0  0  0  0  0  0  0
    8.3138    0.0000    0.0000 C   0  0  0  0  0  0  0  0  0  0  0  0
    5.5426    0.0000    0.0000 C   0  0  0  0  0  0  0  0  0  0  0  0
  1  2  1  0  0  0  0
  2  3  1  0  0  0  0
  2 20  2  0  0  0  0
  3  4  2  0  0  0  0
  4  5  1  0  0  0  0
  4  9  1  0  0  0  0
  5  6  1  0  0  0  0
  5 17  2  0  0  0  0
  6  7  2  0  0  0  0
  6 14  1  0  0  0  0
  7  8  1  0  0  0  0
  8  9  1  0  0  0  0
  8 11  1  1  0  0  0
  9 10  2  0  0  0  0
 11 12  2  0  0  0  0
 11 13  1  0  0  0  0
 14 15  1  0  0  0  0
 14 16  1  0  0  0  0
 15 16  1  0  0  0  0
 17 18  1  0  0  0  0
 17 20  1  0  0  0  0
 18 19  1  0  0  0  0
 20 21  1  0  0  0  0
 21 22  1  0  0  0  0
 21 27  1  0  0  0  0
 22 23  1  0  0  0  0
 23 24  1  0  0  0  0
 24 25  1  0  0  0  0
 25 26  1  1  0  0  0
 25 27  1  0  0  0  0
M  CHG  1   6   1
M  END
> <Acceptable>
true

> <IC50>
128

$$$$

Generated by Molecular Materials Informatics

 18 18  0  0  0  0  0  0  0  0999 V2000
   -1.3856   -2.4000    0.0000 O   0  0  0  0  0  0  0  0  0  0  0  0
   -1.3856   -0.8000    0.0000 C   0  0  0  0  0  0  0  0  0  0  0  0
   -2.7713    0.0000    0.0000 O   0  0  0  0  0  0  0  0  0  0  0  0
    0.0000    0.0000    0.0000 C   0  0  0  0  0  0  0  0  0  0  0  0
   -0.6123    1.4782    0.0000 C   0  0  0  0  0  0  0  0  0  0  0  0
    0.6123    1.4782    0.0000 C   0  0  0  0  0  0  0  0  0  0  0  0
    1.3856   -0.8000    0.0000 C   0  0  0  0  0  0  0  0  0  0  0  0
    2.7713    0.0000    0.0000 C   0  0  0  0  0  0  0  0  0  0  0  0
    4.1569   -0.8000    0.0000 C   0  0  0  0  0  0  0  0  0  0  0  0
    5.5426    0.0000    0.0000 O   0  0  0  0  0  0  0  0  0  0  0  0
    6.9282   -0.8000    0.0000 C   0  0  0  0  0  0  0  0  0  0  0  0
    6.9282   -2.4000    0.0000 C   0  0  0  0  0  0  0  0  0  0  0  0
    8.3138   -3.2000    0.0000 C   0  0  0  0  0  0  0  0  0  0  0  0
    8.3138   -4.8000    0.0000 C   0  0  0  0  0  0  0  0  0  0  0  0
    9.6995   -2.4000    0.0000 C   0  0  0  0  0  0  0  0  0  0  0  0
    9.6995   -0.8000    0.0000 C   0  0  0  0  0  0  0  0  0  0  0  0
    8.3138    0.0000    0.0000 C   0  0  0  0  0  0  0  0  0  0  0  0
    8.3138    1.6000    0.0000 C   0  0  0  0  0  0  0  0  0  0  0  0
  1  2  2  0  0  0  0
  2  3  1  0  0  0  0
  2  4  1  0  0  0  0
  4  5  1  0  0  0  0
  4  6  1  0  0  0  0
  4  7  1  0  0  0  0
  7  8  1  0  0  0  0
  8  9  1  0  0  0  0
  9 10  1  0  0  0  0
 10 11  1  0  0  0  0
 11 12  1  0  0  0  0
 11 17  2  0  0  0  0
 12 13  2  0  0  0  0
 13 14  1  0  0  0  0
 13 15  1  0  0  0  0
 15 16  2  0  0  0  0
 16 17  1  0  0  0  0
 17 18  1  0  0  0  0
M  END
> <Acceptable>
true

> <IC50>
N/A

$$$$

Generated by Molecular Materials Informatics

 31 35  0  0  0  0  0  0  0  0999 V2000
   -1.7943    2.2158    0.0000 O   0  0  0  0  0  0  0  0  0  0  0  0
    3.8070    1.6271    0.0000 O   0  0  0  0  0  0  0  0  0  0  0  0
   -3.3126   -2.4835    0.0000 N   0  0  0  0  0  0  0  0  0  0  0  0
    1.0530    2.3650    0.0000 N   0  0  0  0  0  0  0  0  0  0  0  0
   -8.5839   -0.7707    0.0000 N   0  0  0  0  0  0  0  0  0  0  0  0
    2.9295   -4.0852    0.0000 N   0  0  0  0  0  0  0  0  0  0  0  0
   -1.0706   -1.1890    0.0000 C   0  0  0  0  0  0  0  0  0  0  0  0
   -2.1236   -3.5541    0.0000 C   0  0  0  0  0  0  0  0  0  0  0  0
   -4.8777   -2.8161    0.0000 C   0  0  0  0  0  0  0  0  0  0  0  0
   -0.7380   -2.7541    0.0000 C   0  0  0  0  0  0  0  0  0  0  0  0
    0.0000    0.0000    0.0000 C   0  0  0  0  0  0  0  0  0  0  0  0
   -2.6618   -1.0218    0.0000 C   0  0  0  0  0  0  0  0  0  0  0  0
   -5.9483   -1.6271    0.0000 C   0  0  0  0  0  0  0  0  0  0  0  0
    1.5912   -0.1672    0.0000 C   0  0  0  0  0  0  0  0  0  0  0  0
    2.3912   -1.5529    0.0000 C   0  0  0  0  0  0  0  0  0  0  0  0
   -7.5133   -1.9598    0.0000 C   0  0  0  0  0  0  0  0  0  0  0  0
   -2.1236   -5.1541    0.0000 C   0  0  0  0  0  0  0  0  0  0  0  0
    0.6477   -3.5541    0.0000 C   0  0  0  0  0  0  0  0  0  0  0  0
   -0.3327    1.5650    0.0000 C   0  0  0  0  0  0  0  0  0  0  0  0
    3.9825   -1.7201    0.0000 C   0  0  0  0  0  0  0  0  0  0  0  0
    2.2420    1.2944    0.0000 C   0  0  0  0  0  0  0  0  0  0  0  0
    4.3151   -3.2852    0.0000 C   0  0  0  0  0  0  0  0  0  0  0  0
    1.7405   -3.0146    0.0000 C   0  0  0  0  0  0  0  0  0  0  0  0
   -0.7380   -5.9541    0.0000 C   0  0  0  0  0  0  0  0  0  0  0  0
    0.6477   -5.1541    0.0000 C   0  0  0  0  0  0  0  0  0  0  0  0
    5.1715   -0.6495    0.0000 C   0  0  0  0  0  0  0  0  0  0  0  0
    5.8368   -3.7796    0.0000 C   0  0  0  0  0  0  0  0  0  0  0  0
   -8.0895    0.7510    0.0000 C   0  0  0  0  0  0  0  0  0  0  0  0
  -10.1490   -1.1034    0.0000 C   0  0  0  0  0  0  0  0  0  0  0  0
    6.6932   -1.1439    0.0000 C   0  0  0  0  0  0  0  0  0  0  0  0
    7.0259   -2.7090    0.0000 C   0  0  0  0  0  0  0  0  0  0  0  0
  1 19  2  0  0  0  0
  2 21  2  0  0  0  0
  3  8  1  0  0  0  0
  3  9  1  0  0  0  0
  3 12  1  0  0  0  0
  4 19  1  0  0  0  0
  4 21  1  0  0  0  0
  5 16  1  0  0  0  0
  5 28  1  0  0  0  0
  5 29  1  0  0  0  0
  6 22  1  0  0  0  0
  6 23  1  0  0  0  0
  7 10  1  0  0  0  0
  7 11  1  0  0  0  0
  7 12  2  0  0  0  0
  8 10  2  0  0  0  0
  8 17  1  0  0  0  0
  9 13  1  0  0  0  0
 10 18  1  0  0  0  0
 11 14  2  0  0  0  0
 11 19  1  0  0  0  0
 13 16  1  0  0  0  0
 14 15  1  0  0  0  0
 14 21  1  0  0  0  0
 15 20  1  0  0  0  0
 15 23  2  0  0  0  0
 17 24  2  0  0  0  0
 18 25  2  0  0  0  0
 20 22  2  0  0  0  0
 20 26  1  0  0  0  0
 22 27  1  0  0  0  0
 24 25  1  0  0  0  0
 26 30  2  0  0  0  0
 27 31  2  0  0  0  0
 30 31  1  0  0  0  0
M  END
> <Acceptable>
false

> <IC50>
1

$$$$

Generated by Molecular Materials Informatics

 33 35  0  0  0  0  0  0  0  0999 V2000
  -12.4708    7.2000    0.0000 Cl  0  0  0  0  0  0  0  0  0  0  0  0
  -12.4708    5.6000    0.0000 C   0  0  0  0  0  0  0  0  0  0  0  0
  -13.8564    4.8000    0.0000 C   0  0  0  0  0  0  0  0  0  0  0  0
  -13.8564    3.2000    0.0000 C   0  0  0  0  0  0  0  0  0  0  0  0
  -12.4708    2.4000    0.0000 C   0  0  0  0  0  0  0  0  0  0  0  0
  -12.4708    0.8000    0.0000 O   0  0  0  0  0  0  0  0  0  0  0  0
  -13.8564    0.0000    0.0000 C   0  0  0  0  0  0  0  0  0  0  0  0
  -11.0851    3.2000    0.0000 C   0  0  0  0  0  0  0  0  0  0  0  0
  -11.0851    4.8000    0.0000 C   0  0  0  0  0  0  0  0  0  0  0  0
   -9.6995    2.4000    0.0000 C   0  0  0  0  0  0  0  0  0  0  0  0
   -9.6995    0.8000    0.0000 O   0  0  0  0  0  0  0  0  0  0  0  0
   -8.3138    3.2000    0.0000 N   0  0  0  0  0  0  0  0  0  0  0  0
   -6.9282    2.4000    0.0000 C   0  0  0  0  0  0  0  0  0  0  0  0
   -5.5426    3.2000    0.0000 C   0  0  0  0  0  0  0  0  0  0  0  0
   -4.1569    2.4000    0.0000 C   0  0  0  0  0  0  0  0  0  0  0  0
   -4.1569    0.8000    0.0000 C   0  0  0  0  0  0  0  0  0  0  0  0
   -2.7713    0.0000    0.0000 C   0  0  0  0  0  0  0  0  0  0  0  0
   -1.3856    0.8000    0.0000 C   0  0  0  0  0  0  0  0  0  0  0  0
    0.0000    0.0000    0.0000 S   0  0  0  0  0  0  0  0  0  0  0  0
   -0.8000   -1.3856    0.0000 O   0  0  0  0  0  0  0  0  0  0  0  0
    0.8000    1.3856    0.0000 O   0  0  0  0  0  0  0  0  0  0  0  0
    1.3856   -0.8000    0.0000 N   0  0  0  0  0  0  0  0  0  0  0  0
    2.7713    0.0000    0.0000 C   0  0  0  0  0  0  0  0  0  0  0  0
    2.7713    1.6000    0.0000 O   0  0  0  0  0  0  0  0  0  0  0  0
    4.1569   -0.8000    0.0000 N   0  0  0  0  0  0  0  0  0  0  0  0
    5.5426    0.0000    0.0000 C   0  0  0  0  0  0  0  0  0  0  0  0
    6.9282   -0.8000    0.0000 C   0  0  0  0  0  0  0  0  0  0  0  0
    8.3138    0.0000    0.0000 C   0  0  0  0  0  0  0  0  0  0  0  0
    8.3138    1.6000    0.0000 C   0  0  0  0  0  0  0  0  0  0  0  0
    6.9282    2.4000    0.0000 C   0  0  0  0  0  0  0  0  0  0  0  0
    5.5426    1.6000    0.0000 C   0  0  0  0  0  0  0  0  0  0  0  0
   -1.3856    2.4000    0.0000 C   0  0  0  0  0  0  0  0  0  0  0  0
   -2.7713    3.2000    0.0000 C   0  0  0  0  0  0  0  0  0  0  0  0
  1  2  1  0  0  0  0
  2  3  1  0  0  0  0
  2  9  2  0  0  0  0
  3  4  2  0  0  0  0
  4  5  1  0  0  0  0
  5  6  1  0  0  0  0
  5  8  2  0  0  0  0
  6  7  1  0  0  0  0
  8  9  1  0  0  0  0
  8 10  1  0  0  0  0
 10 11  2  0  0  0  0
 10 12  1  0  0  0  0
 12 13  1  0  0  0  0
 13 14  1  0  0  0  0
 14 15  1  0  0  0  0
 15 16  1  0  0  0  0
 15 33  2  0  0  0  0
 16 17  2  0  0  0  0
 17 18  1  0  0  0  0
 18 19  1  0  0  0  0
 18 32  2  0  0  0  0
 19 20  2  0  0  0  0
 19 21  2  0  0  0  0
 19 22  1  0  0  0  0
 22 23  1  0  0  0  0
 23 24  2  0  0  0  0
 23 25  1  0  0  0  0
 25 26  1  0  0  0  0
 26 27  1  0  0  0  0
 26 31  1  0  0  0  0
 27 28  1  0  0  0  0
 28 29  1  0  0  0  0
 29 30  1  0  0  0  0
 30 31  1  0  0  0  0
 32 33  1  0  0  0  0
M  END
> <Acceptable>
true

> <IC50>
74.13

$$$$

Generated by Molecular Materials Informatics

 34 36  0  0  0  0  0  0  0  0999 V2000
    0.0000    0.0000    0.0000 S   0  0  0  0  0  0  0  0  0  0  0  0
    0.9405    1.2944    0.0000 O   0  0  0  0  0  0  0  0  0  0  0  0
   -0.9405   -1.2944    0.0000 O   0  0  0  0  0  0  0  0  0  0  0  0
   -1.2944    0.9405    0.0000 N   0  0  0  0  0  0  0  0  0  0  0  0
   -2.7561    0.2897    0.0000 C   0  0  0  0  0  0  0  0  0  0  0  0
   -2.9233   -1.3016    0.0000 O   0  0  0  0  0  0  0  0  0  0  0  0
   -4.0505    1.2301    0.0000 N   0  0  0  0  0  0  0  0  0  0  0  0
   -5.5122    0.5794    0.0000 C   0  0  0  0  0  0  0  0  0  0  0  0
   -6.8066    1.5198    0.0000 C   0  0  0  0  0  0  0  0  0  0  0  0
   -8.2683    0.8690    0.0000 C   0  0  0  0  0  0  0  0  0  0  0  0
   -8.4355   -0.7222    0.0000 C   0  0  0  0  0  0  0  0  0  0  0  0
   -9.8972   -1.3730    0.0000 C   0  0  0  0  0  0  0  0  0  0  0  0
   -7.1411   -1.6627    0.0000 C   0  0  0  0  0  0  0  0  0  0  0  0
   -5.6794   -1.0119    0.0000 C   0  0  0  0  0  0  0  0  0  0  0  0
    1.2944   -0.9405    0.0000 C   0  0  0  0  0  0  0  0  0  0  0  0
    1.1272   -2.5317    0.0000 C   0  0  0  0  0  0  0  0  0  0  0  0
    2.4216   -3.4721    0.0000 C   0  0  0  0  0  0  0  0  0  0  0  0
    3.8833   -2.8214    0.0000 C   0  0  0  0  0  0  0  0  0  0  0  0
    4.0505   -1.2301    0.0000 C   0  0  0  0  0  0  0  0  0  0  0  0
    2.7561   -0.2897    0.0000 C   0  0  0  0  0  0  0  0  0  0  0  0
    5.1777   -3.7618    0.0000 C   0  0  0  0  0  0  0  0  0  0  0  0
    6.6394   -3.1110    0.0000 C   0  0  0  0  0  0  0  0  0  0  0  0
    7.9338   -4.0515    0.0000 N   0  0  0  0  0  0  0  0  0  0  0  0
    9.3955   -3.4007    0.0000 C   0  0  0  0  0  0  0  0  0  0  0  0
    9.5627   -1.8095    0.0000 O   0  0  0  0  0  0  0  0  0  0  0  0
   10.6899   -4.3412    0.0000 N   0  0  0  0  0  0  0  0  0  0  0  0
   10.6899   -5.9412    0.0000 C   0  0  0  0  0  0  0  0  0  0  0  0
   12.2116   -6.4356    0.0000 C   0  0  0  0  0  0  0  0  0  0  0  0
   12.7060   -7.9573    0.0000 C   0  0  0  0  0  0  0  0  0  0  0  0
   13.1521   -5.1412    0.0000 C   0  0  0  0  0  0  0  0  0  0  0  0
   14.7521   -5.1412    0.0000 C   0  0  0  0  0  0  0  0  0  0  0  0
   15.5521   -6.5268    0.0000 C   0  0  0  0  0  0  0  0  0  0  0  0
   12.2116   -3.8468    0.0000 C   0  0  0  0  0  0  0  0  0  0  0  0
   12.7060   -2.3251    0.0000 O   0  0  0  0  0  0  0  0  0  0  0  0
  1  2  2  0  0  0  0
  1  3  2  0  0  0  0
  1  4  1  0  0  0  0
  1 15  1  0  0  0  0
  4  5  1  0  0  0  0
  5  6  2  0  0  0  0
  5  7  1  0  0  0  0
  8  7  1  1  0  0  0
  8  9  1  0  0  0  0
  8 14  1  0  0  0  0
  9 10  1  0  0  0  0
 10 11  1  0  0  0  0
 11 12  1  1  0  0  0
 11 13  1  0  0  0  0
 13 14  1  0  0  0  0
 15 16  1  0  0  0  0
 15 20  2  0  0  0  0
 16 17  2  0  0  0  0
 17 18  1  0  0  0  0
 18 19  2  0  0  0  0
 18 21  1  0  0  0  0
 19 20  1  0  0  0  0
 21 22  1  0  0  0  0
 22 23  1  0  0  0  0
 23 24  1  0  0  0  0
 24 25  2  0  0  0  0
 24 26  1  0  0  0  0
 26 27  1  0  0  0  0
 26 33  1  0  0  0  0
 27 28  1  0  0  0  0
 28 29  1  0  0  0  0
 28 30  2  0  0  0  0
 30 31  1  0  0  0  0
 30 33  1  0  0  0  0
 31 32  1  0  0  0  0
 33 34  2  0  0  0  0
M  END
> <Acceptable>
true

> <IC50>
74.13

$$$$

Generated by Molecular Materials Informatics

 31 33  0  0  0  0  0  0  0  0999 V2000
    0.0000    0.0000    0.0000 S   0  0  0  0  0  0  0  0  0  0  0  0
   -0.8000   -1.3856    0.0000 O   0  0  0  0  0  0  0  0  0  0  0  0
    0.8000    1.3856    0.0000 O   0  0  0  0  0  0  0  0  0  0  0  0
   -1.3856    0.8000    0.0000 N   0  0  0  0  0  0  0  0  0  0  0  0
   -2.7713    0.0000    0.0000 C   0  0  0  0  0  0  0  0  0  0  0  0
   -2.7713   -1.6000    0.0000 O   0  0  0  0  0  0  0  0  0  0  0  0
   -4.1569    0.8000    0.0000 N   0  0  0  0  0  0  0  0  0  0  0  0
   -5.5426    0.0000    0.0000 C   0  0  0  0  0  0  0  0  0  0  0  0
   -5.5426   -1.6000    0.0000 C   0  0  0  0  0  0  0  0  0  0  0  0
   -6.9282   -2.4000    0.0000 C   0  0  0  0  0  0  0  0  0  0  0  0
   -8.3138   -1.6000    0.0000 C   0  0  0  0  0  0  0  0  0  0  0  0
   -8.3138    0.0000    0.0000 C   0  0  0  0  0  0  0  0  0  0  0  0
   -6.9282    0.8000    0.0000 C   0  0  0  0  0  0  0  0  0  0  0  0
    1.3856   -0.8000    0.0000 C   0  0  0  0  0  0  0  0  0  0  0  0
    2.7713    0.0000    0.0000 C   0  0  0  0  0  0  0  0  0  0  0  0
    4.1569   -0.8000    0.0000 C   0  0  0  0  0  0  0  0  0  0  0  0
    4.1569   -2.4000    0.0000 C   0  0  0  0  0  0  0  0  0  0  0  0
    2.7713   -3.2000    0.0000 C   0  0  0  0  0  0  0  0  0  0  0  0
    1.3856   -2.4000    0.0000 C   0  0  0  0  0  0  0  0  0  0  0  0
    5.5426   -3.2000    0.0000 C   0  0  0  0  0  0  0  0  0  0  0  0
    6.9282   -2.4000    0.0000 C   0  0  0  0  0  0  0  0  0  0  0  0
    8.3138   -3.2000    0.0000 N   0  0  0  0  0  0  0  0  0  0  0  0
    9.6995   -2.4000    0.0000 C   0  0  0  0  0  0  0  0  0  0  0  0
    9.6995   -0.8000    0.0000 O   0  0  0  0  0  0  0  0  0  0  0  0
   11.0851   -3.2000    0.0000 C   0  0  0  0  0  0  0  0  0  0  0  0
   12.4708   -2.4000    0.0000 N   0  0  0  0  0  0  0  0  0  0  0  0
   13.8564   -3.2000    0.0000 C   0  0  0  0  0  0  0  0  0  0  0  0
   13.8564   -4.8000    0.0000 C   0  0  0  0  0  0  0  0  0  0  0  0
   12.4708   -5.6000    0.0000 N   0  0  0  0  0  0  0  0  0  0  0  0
   11.0851   -4.8000    0.0000 C   0  0  0  0  0  0  0  0  0  0  0  0
   15.2420   -5.6000    0.0000 C   0  0  0  0  0  0  0  0  0  0  0  0
  1  2  2  0  0  0  0
  1  3  2  0  0  0  0
  1  4  1  0  0  0  0
  1 14  1  0  0  0  0
  4  5  1  0  0  0  0
  5  6  2  0  0  0  0
  5  7  1  0  0  0  0
  7  8  1  0  0  0  0
  8  9  1  0  0  0  0
  8 13  1  0  0  0  0
  9 10  1  0  0  0  0
 10 11  1  0  0  0  0
 11 12  1  0  0  0  0
 12 13  1  0  0  0  0
 14 15  1  0  0  0  0
 14 19  2  0  0  0  0
 15 16  2  0  0  0  0
 16 17  1  0  0  0  0
 17 18  2  0  0  0  0
 17 20  1  0  0  0  0
 18 19  1  0  0  0  0
 20 21  1  0  0  0  0
 21 22  1  0  0  0  0
 22 23  1  0  0  0  0
 23 24  2  0  0  0  0
 23 25  1  0  0  0  0
 25 26  1  0  0  0  0
 25 30  2  0  0  0  0
 26 27  2  0  0  0  0
 27 28  1  0  0  0  0
 28 29  2  0  0  0  0
 28 31  1  0  0  0  0
 29 30  1  0  0  0  0
M  END
> <Acceptable>
true

> <IC50>
N/A

$$$$

Generated by Molecular Materials Informatics

 25 25  0  0  0  0  0  0  0  0999 V2000
    6.9282    4.0000    0.0000 O   0  0  0  0  0  0  0  0  0  0  0  0
    6.9282    2.4000    0.0000 C   0  0  0  0  0  0  0  0  0  0  0  0
    5.5426    1.6000    0.0000 N   0  0  0  0  0  0  0  0  0  0  0  0
    4.1569    2.4000    0.0000 C   0  0  0  0  0  0  0  0  0  0  0  0
    2.7713    1.6000    0.0000 C   0  0  0  0  0  0  0  0  0  0  0  0
    2.7713    0.0000    0.0000 C   0  0  0  0  0  0  0  0  0  0  0  0
    1.3856   -0.8000    0.0000 C   0  0  0  0  0  0  0  0  0  0  0  0
    0.0000    0.0000    0.0000 C   0  0  0  0  0  0  0  0  0  0  0  0
   -1.3856   -0.8000    0.0000 C   0  0  0  0  0  0  0  0  0  0  0  0
   -1.3856   -2.4000    0.0000 C   0  0  0  0  0  0  0  0  0  0  0  0
    0.0000   -3.2000    0.0000 O   0  0  0  0  0  0  0  0  0  0  0  0
   -2.7713   -3.2000    0.0000 C   0  0  0  0  0  0  0  0  0  0  0  0
   -2.7713   -4.8000    0.0000 O   0  0  0  0  0  0  0  0  0  0  0  0
    0.0000    1.6000    0.0000 C   0  0  0  0  0  0  0  0  0  0  0  0
   -1.3856    2.4000    0.0000 O   0  0  0  0  0  0  0  0  0  0  0  0
   -1.3856    4.0000    0.0000 C   0  0  0  0  0  0  0  0  0  0  0  0
    1.3856    2.4000    0.0000 C   0  0  0  0  0  0  0  0  0  0  0  0
    8.3138    1.6000    0.0000 C   0  0  0  0  0  0  0  0  0  0  0  0
    9.6995    2.4000    0.0000 C   0  0  0  0  0  0  0  0  0  0  0  0
   11.0851    1.6000    0.0000 C   0  0  0  0  0  0  0  0  0  0  0  0
   12.4708    2.4000    0.0000 C   0  0  0  0  0  0  0  0  0  0  0  0
   13.8564    1.6000    0.0000 C   0  0  0  0  0  0  0  0  0  0  0  0
   15.2420    2.4000    0.0000 C   0  0  0  0  0  0  0  0  0  0  0  0
   16.6277    1.6000    0.0000 C   0  0  0  0  0  0  0  0  0  0  0  0
   18.0133    2.4000    0.0000 C   0  0  0  0  0  0  0  0  0  0  0  0
  1  2  2  0  0  0  0
  2  3  1  0  0  0  0
  2 18  1  0  0  0  0
  3  4  1  0  0  0  0
  4  5  1  0  0  0  0
  5  6  1  0  0  0  0
  5 17  2  0  0  0  0
  6  7  2  0  0  0  0
  7  8  1  0  0  0  0
  8  9  1  0  0  0  0
  8 14  2  0  0  0  0
  9 10  1  0  0  0  0
 10 11  1  6  0  0  0
 10 12  1  0  0  0  0
 12 13  1  0  0  0  0
 14 15  1  0  0  0  0
 14 17  1  0  0  0  0
 15 16  1  0  0  0  0
 18 19  1  0  0  0  0
 19 20  1  0  0  0  0
 20 21  1  0  0  0  0
 21 22  1  0  0  0  0
 22 23  1  0  0  0  0
 23 24  1  0  0  0  0
 24 25  1  0  0  0  0
M  END
> <Acceptable>
false

> <IC50>
0.1

$$$$

Generated by Molecular Materials Informatics

 23 26  0  0  0  0  0  0  0  0999 V2000
   -3.2051    0.9455    0.0000 O   0  0  0  0  0  0  0  0  0  0  0  0
   -2.0161    2.0161    0.0000 C   0  0  0  0  0  0  0  0  0  0  0  0
   -2.3488    3.5812    0.0000 N   0  0  0  0  0  0  0  0  0  0  0  0
   -3.8705    4.0756    0.0000 C   0  0  0  0  0  0  0  0  0  0  0  0
   -5.1446    5.1119    0.0000 C   0  0  0  0  0  0  0  0  0  0  0  0
   -6.6054    3.8330    0.0000 C   0  0  0  0  0  0  0  0  0  0  0  0
   -8.0020    3.0524    0.0000 N   0  0  0  0  0  0  0  0  0  0  0  0
   -9.5862    2.8284    0.0000 C   0  0  0  0  0  0  0  0  0  0  0  0
   -6.6591    2.7396    0.0000 C   0  0  0  0  0  0  0  0  0  0  0  0
   -5.5344    1.3267    0.0000 C   0  0  0  0  0  0  0  0  0  0  0  0
   -4.1457    2.1119    0.0000 C   0  0  0  0  0  0  0  0  0  0  0  0
   -5.4152    2.3693    0.0000 C   0  0  0  0  0  0  0  0  0  0  0  0
   -5.2679    3.9993    0.0000 C   0  0  0  0  0  0  0  0  0  0  0  0
   -0.4944    1.5217    0.0000 C   0  0  0  0  0  0  0  0  0  0  0  0
    0.8000    2.4621    0.0000 N   0  0  0  0  0  0  0  0  0  0  0  0
    2.0944    1.5217    0.0000 N   0  0  0  0  0  0  0  0  0  0  0  0
    3.6161    2.0161    0.0000 C   0  0  0  0  0  0  0  0  0  0  0  0
    1.6000    0.0000    0.0000 C   0  0  0  0  0  0  0  0  0  0  0  0
    2.4000   -1.3856    0.0000 C   0  0  0  0  0  0  0  0  0  0  0  0
    1.6000   -2.7713    0.0000 C   0  0  0  0  0  0  0  0  0  0  0  0
    0.0000   -2.7713    0.0000 C   0  0  0  0  0  0  0  0  0  0  0  0
   -0.8000   -1.3856    0.0000 C   0  0  0  0  0  0  0  0  0  0  0  0
    0.0000    0.0000    0.0000 C   0  0  0  0  0  0  0  0  0  0  0  0
  1  2  2  0  0  0  0
  2  3  1  0  0  0  0
  2 14  1  0  0  0  0
  4  3  1  1  0  0  0
  4  5  1  0  0  0  0
  4 13  1  0  0  0  0
  5  6  1  0  0  0  0
  6  7  1  0  0  0  0
  6 12  1  6  0  0  0
  7  8  1  6  0  0  0
  7  9  1  0  0  0  0
  9 10  1  1  0  0  0
  9 13  1  0  0  0  0
 10 11  1  0  0  0  0
 11 12  1  0  0  0  0
 14 15  2  0  0  0  0
 14 23  1  0  0  0  0
 15 16  1  0  0  0  0
 16 17  1  0  0  0  0
 16 18  1  0  0  0  0
 18 19  1  0  0  0  0
 18 23  2  0  0  0  0
 19 20  2  0  0  0  0
 20 21  1  0  0  0  0
 21 22  2  0  0  0  0
 22 23  1  0  0  0  0
M  END
> <Acceptable>
false

> <IC50>
3.71

$$$$

Generated by Molecular Materials Informatics

 26 29  0  0  0  0  0  0  0  0999 V2000
   -3.2000    2.7713    0.0000 F   0  0  0  0  0  0  0  0  0  0  0  0
   -2.4000    1.3856    0.0000 C   0  0  0  0  0  0  0  0  0  0  0  0
   -3.2000    0.0000    0.0000 C   0  0  0  0  0  0  0  0  0  0  0  0
   -4.8000    0.0000    0.0000 N   0  0  0  0  0  0  0  0  0  0  0  0
   -5.6000    1.3856    0.0000 C   0  0  0  0  0  0  0  0  0  0  0  0
   -7.2000    1.3856    0.0000 C   0  0  0  0  0  0  0  0  0  0  0  0
   -8.0000    0.0000    0.0000 N   0  0  0  0  0  0  0  0  0  0  0  0
   -7.2000   -1.3856    0.0000 C   0  0  0  0  0  0  0  0  0  0  0  0
   -8.0000   -2.7713    0.0000 C   0  0  0  0  0  0  0  0  0  0  0  0
   -5.6000   -1.3856    0.0000 C   0  0  0  0  0  0  0  0  0  0  0  0
   -2.4000   -1.3856    0.0000 C   0  0  0  0  0  0  0  0  0  0  0  0
   -0.8000   -1.3856    0.0000 C   0  0  0  0  0  0  0  0  0  0  0  0
    0.0000   -2.7713    0.0000 N   0  3  0  0  0  0  0  0  0  0  0  0
    1.6000   -2.7713    0.0000 C   0  0  0  0  0  0  0  0  0  0  0  0
    2.4000   -1.3856    0.0000 C   0  0  0  0  0  0  0  0  0  0  0  0
    1.6000    0.0000    0.0000 C   0  0  0  0  0  0  0  0  0  0  0  0
    2.4000    1.3856    0.0000 O   0  0  0  0  0  0  0  0  0  0  0  0
    0.0000    0.0000    0.0000 C   0  0  0  0  0  0  0  0  0  0  0  0
   -0.8000    1.3856    0.0000 C   0  0  0  0  0  0  0  0  0  0  0  0
    0.0000    2.7713    0.0000 C   0  0  0  0  0  0  0  0  0  0  0  0
    4.0000   -1.3856    0.0000 C   0  0  0  0  0  0  0  0  0  0  0  0
    4.8000    0.0000    0.0000 O   0  0  0  0  0  0  0  0  0  0  0  0
    4.8000   -2.7713    0.0000 O   0  0  0  0  0  0  0  0  0  0  0  0
   -0.8000   -4.1569    0.0000 C   0  0  0  0  0  0  0  0  0  0  0  0
   -2.1856   -4.9569    0.0000 C   0  0  0  0  0  0  0  0  0  0  0  0
   -0.8000   -5.7569    0.0000 C   0  0  0  0  0  0  0  0  0  0  0  0
  1  2  1  0  0  0  0
  2  3  1  0  0  0  0
  2 19  2  0  0  0  0
  3  4  1  0  0  0  0
  3 11  2  0  0  0  0
  4  5  1  0  0  0  0
  4 10  1  0  0  0  0
  5  6  1  0  0  0  0
  6  7  1  0  0  0  0
  7  8  1  0  0  0  0
  8  9  1  1  0  0  0
  8 10  1  0  0  0  0
 11 12  1  0  0  0  0
 12 13  1  0  0  0  0
 12 18  2  0  0  0  0
 13 14  2  0  0  0  0
 13 24  1  0  0  0  0
 14 15  1  0  0  0  0
 15 16  1  0  0  0  0
 15 21  1  6  0  0  0
 16 17  2  0  0  0  0
 16 18  1  0  0  0  0
 18 19  1  0  0  0  0
 19 20  1  0  0  0  0
 21 22  2  0  0  0  0
 21 23  1  0  0  0  0
 24 25  1  0  0  0  0
 24 26  1  0  0  0  0
 25 26  1  0  0  0  0
M  CHG  1  13   1
M  END
> <Acceptable>
true

> <IC50>
66.07

$$$$

Generated by Molecular Materials Informatics

 14 14  0  0  0  0  0  0  0  0999 V2000
   -6.9282    0.8000    0.0000 O   0  0  0  0  0  0  0  0  0  0  0  0
   -5.5426    0.0000    0.0000 C   0  0  0  0  0  0  0  0  0  0  0  0
   -4.1569    0.8000    0.0000 C   0  0  0  0  0  0  0  0  0  0  0  0
   -4.1569    2.4000    0.0000 O   0  0  0  0  0  0  0  0  0  0  0  0
   -2.7713    0.0000    0.0000 C   0  0  0  0  0  0  0  0  0  0  0  0
   -1.3856    0.8000    0.0000 O   0  0  0  0  0  0  0  0  0  0  0  0
    0.0000    0.0000    0.0000 C   0  0  0  0  0  0  0  0  0  0  0  0
    0.0000   -1.6000    0.0000 C   0  0  0  0  0  0  0  0  0  0  0  0
    1.3856   -2.4000    0.0000 C   0  0  0  0  0  0  0  0  0  0  0  0
    2.7713   -1.6000    0.0000 C   0  0  0  0  0  0  0  0  0  0  0  0
    2.7713    0.0000    0.0000 C   0  0  0  0  0  0  0  0  0  0  0  0
    1.3856    0.8000    0.0000 C   0  0  0  0  0  0  0  0  0  0  0  0
    1.3856    2.4000    0.0000 O   0  0  0  0  0  0  0  0  0  0  0  0
    2.7713    3.2000    0.0000 C   0  0  0  0  0  0  0  0  0  0  0  0
  1  2  1  0  0  0  0
  2  3  1  0  0  0  0
  3  4  1  6  0  0  0
  3  5  1  0  0  0  0
  5  6  1  0  0  0  0
  6  7  1  0  0  0  0
  7  8  1  0  0  0  0
  7 12  2  0  0  0  0
  8  9  2  0  0  0  0
  9 10  1  0  0  0  0
 10 11  2  0  0  0  0
 11 12  1  0  0  0  0
 12 13  1  0  0  0  0
 13 14  1  0  0  0  0
M  END
> <Acceptable>
true

> <IC50>
N/A

$$$$

Generated by Molecular Materials Informatics

 15 15  0  0  0  0  0  0  0  0999 V2000
    1.3856    2.4000    0.0000 Cl  0  0  0  0  0  0  0  0  0  0  0  0
    0.0000    1.6000    0.0000 C   0  0  0  0  0  0  0  0  0  0  0  0
   -1.3856    2.4000    0.0000 C   0  0  0  0  0  0  0  0  0  0  0  0
   -2.7713    1.6000    0.0000 C   0  0  0  0  0  0  0  0  0  0  0  0
   -2.7713    0.0000    0.0000 C   0  0  0  0  0  0  0  0  0  0  0  0
   -1.3856   -0.8000    0.0000 C   0  0  0  0  0  0  0  0  0  0  0  0
   -1.3856   -2.4000    0.0000 Cl  0  0  0  0  0  0  0  0  0  0  0  0
    0.0000    0.0000    0.0000 C   0  0  0  0  0  0  0  0  0  0  0  0
    1.3856   -0.8000    0.0000 C   0  0  0  0  0  0  0  0  0  0  0  0
    2.7713    0.0000    0.0000 C   0  0  0  0  0  0  0  0  0  0  0  0
    2.7713    1.6000    0.0000 O   0  0  0  0  0  0  0  0  0  0  0  0
    4.1569   -0.8000    0.0000 N   0  0  0  0  0  0  0  0  0  0  0  0
    5.5426    0.0000    0.0000 C   0  0  0  0  0  0  0  0  0  0  0  0
    5.5426    1.6000    0.0000 N   0  0  0  0  0  0  0  0  0  0  0  0
    6.9282   -0.8000    0.0000 N   0  0  0  0  0  0  0  0  0  0  0  0
  1  2  1  0  0  0  0
  2  3  1  0  0  0  0
  2  8  2  0  0  0  0
  3  4  2  0  0  0  0
  4  5  1  0  0  0  0
  5  6  2  0  0  0  0
  6  7  1  0  0  0  0
  6  8  1  0  0  0  0
  8  9  1  0  0  0  0
  9 10  1  0  0  0  0
 10 11  2  0  0  0  0
 10 12  1  0  0  0  0
 12 13  1  0  0  0  0
 13 14  2  0  0  0  0
 13 15  1  0  0  0  0
M  END
> <Acceptable>
true

> <IC50>
N/A

$$$$

Generated by Molecular Materials Informatics

 30 32  0  0  0  0  0  0  0  0999 V2000
   -1.5464   -2.2997    0.0000 O   0  0  0  0  0  0  0  0  0  0  0  0
   -1.4371   -0.7034    0.0000 C   0  0  0  0  0  0  0  0  0  0  0  0
   -2.7648    0.1894    0.0000 O   0  0  0  0  0  0  0  0  0  0  0  0
   -4.2019   -0.5140    0.0000 C   0  0  0  0  0  0  0  0  0  0  0  0
   -4.3112   -2.1103    0.0000 C   0  0  0  0  0  0  0  0  0  0  0  0
   -5.5296    0.3788    0.0000 C   0  0  0  0  0  0  0  0  0  0  0  0
   -5.6390   -1.2174    0.0000 C   0  0  0  0  0  0  0  0  0  0  0  0
    0.0000    0.0000    0.0000 N   0  0  0  0  0  0  0  0  0  0  0  0
    0.0000    1.6000    0.0000 C   0  0  0  0  0  0  0  0  0  0  0  0
    1.2636    2.5815    0.0000 C   0  0  0  0  0  0  0  0  0  0  0  0
    2.8139    2.1856    0.0000 C   0  0  0  0  0  0  0  0  0  0  0  0
    2.0139    0.8000    0.0000 O   0  0  0  0  0  0  0  0  0  0  0  0
    2.8139   -0.5856    0.0000 C   0  0  0  0  0  0  0  0  0  0  0  0
    1.2636   -0.9815    0.0000 C   0  0  0  0  0  0  0  0  0  0  0  0
    4.4139   -0.5856    0.0000 C   0  0  0  0  0  0  0  0  0  0  0  0
    5.2139    0.8000    0.0000 N   0  0  0  0  0  0  0  0  0  0  0  0
    4.4139    2.1856    0.0000 C   0  0  0  0  0  0  0  0  0  0  0  0
    6.8139    0.8000    0.0000 C   0  0  0  0  0  0  0  0  0  0  0  0
    7.6139    2.1856    0.0000 C   0  0  0  0  0  0  0  0  0  0  0  0
    6.8139    3.5713    0.0000 O   0  0  0  0  0  0  0  0  0  0  0  0
    9.2139    2.1856    0.0000 C   0  0  0  0  0  0  0  0  0  0  0  0
   10.0139    3.5713    0.0000 O   0  0  0  0  0  0  0  0  0  0  0  0
   11.6139    3.5713    0.0000 C   0  0  0  0  0  0  0  0  0  0  0  0
   12.4139    4.9569    0.0000 C   0  0  0  0  0  0  0  0  0  0  0  0
   14.0139    4.9569    0.0000 C   0  0  0  0  0  0  0  0  0  0  0  0
   14.8139    3.5713    0.0000 C   0  0  0  0  0  0  0  0  0  0  0  0
   16.4139    3.5713    0.0000 C   0  0  0  0  0  0  0  0  0  0  0  0
   18.0139    3.5713    0.0000 N   0  0  0  0  0  0  0  0  0  0  0  0
   14.0139    2.1856    0.0000 C   0  0  0  0  0  0  0  0  0  0  0  0
   12.4139    2.1856    0.0000 C   0  0  0  0  0  0  0  0  0  0  0  0
  1  2  2  0  0  0  0
  2  3  1  0  0  0  0
  2  8  1  0  0  0  0
  3  4  1  0  0  0  0
  4  5  1  0  0  0  0
  4  6  1  0  0  0  0
  4  7  1  0  0  0  0
  8  9  1  0  0  0  0
  8 14  1  0  0  0  0
  9 10  1  0  0  0  0
 10 11  1  0  0  0  0
 11 12  1  1  0  0  0
 11 17  1  0  0  0  0
 12 13  1  0  0  0  0
 13 14  1  1  0  0  0
 13 15  1  0  0  0  0
 15 16  1  0  0  0  0
 16 17  1  0  0  0  0
 16 18  1  6  0  0  0
 18 19  1  0  0  0  0
 19 20  1  6  0  0  0
 19 21  1  0  0  0  0
 21 22  1  0  0  0  0
 22 23  1  0  0  0  0
 23 24  1  0  0  0  0
 23 30  2  0  0  0  0
 24 25  2  0  0  0  0
 25 26  1  0  0  0  0
 26 27  1  0  0  0  0
 26 29  2  0  0  0  0
 27 28  3  0  0  0  0
 29 30  1  0  0  0  0
M  END
> <Acceptable>
false

> <IC50>
0.0891

$$$$

Generated by Molecular Materials Informatics

 33 35  0  0  0  0  0  0  0  0999 V2000
   -2.7713    4.8000    0.0000 Cl  0  0  0  0  0  0  0  0  0  0  0  0
   -1.3856    4.0000    0.0000 C   0  0  0  0  0  0  0  0  0  0  0  0
    0.0000    4.8000    0.0000 C   0  0  0  0  0  0  0  0  0  0  0  0
    1.3856    4.0000    0.0000 C   0  0  0  0  0  0  0  0  0  0  0  0
    2.7713    4.8000    0.0000 Cl  0  0  0  0  0  0  0  0  0  0  0  0
    1.3856    2.4000    0.0000 C   0  0  0  0  0  0  0  0  0  0  0  0
    2.7713    1.6000    0.0000 C   0  0  0  0  0  0  0  0  0  0  0  0
    2.7713    0.0000    0.0000 C   0  0  0  0  0  0  0  0  0  0  0  0
    1.3856   -0.8000    0.0000 C   0  0  0  0  0  0  0  0  0  0  0  0
    1.3856   -2.4000    0.0000 C   0  0  0  0  0  0  0  0  0  0  0  0
    0.0000   -3.2000    0.0000 C   0  0  0  0  0  0  0  0  0  0  0  0
   -1.3856   -2.4000    0.0000 C   0  0  0  0  0  0  0  0  0  0  0  0
   -1.3856   -0.8000    0.0000 C   0  0  0  0  0  0  0  0  0  0  0  0
    0.0000    0.0000    0.0000 C   0  0  0  0  0  0  0  0  0  0  0  0
    0.0000    1.6000    0.0000 C   0  0  0  0  0  0  0  0  0  0  0  0
   -1.3856    2.4000    0.0000 C   0  0  0  0  0  0  0  0  0  0  0  0
   -2.7713   -3.2000    0.0000 C   0  0  0  0  0  0  0  0  0  0  0  0
   -4.1569   -2.4000    0.0000 F   0  0  0  0  0  0  0  0  0  0  0  0
   -2.7713   -4.8000    0.0000 F   0  0  0  0  0  0  0  0  0  0  0  0
   -4.1569   -4.0000    0.0000 F   0  0  0  0  0  0  0  0  0  0  0  0
    4.1569   -0.8000    0.0000 C   0  0  0  0  0  0  0  0  0  0  0  0
    4.1569   -2.4000    0.0000 O   0  0  0  0  0  0  0  0  0  0  0  0
    5.5426    0.0000    0.0000 C   0  0  0  0  0  0  0  0  0  0  0  0
    6.9282   -0.8000    0.0000 C   0  0  0  0  0  0  0  0  0  0  0  0
    8.3138    0.0000    0.0000 N   0  0  0  0  0  0  0  0  0  0  0  0
    8.3138    1.6000    0.0000 C   0  0  0  0  0  0  0  0  0  0  0  0
    9.6995    2.4000    0.0000 C   0  0  0  0  0  0  0  0  0  0  0  0
    9.6995    4.0000    0.0000 C   0  0  0  0  0  0  0  0  0  0  0  0
   11.0851    4.8000    0.0000 C   0  0  0  0  0  0  0  0  0  0  0  0
    9.6995   -0.8000    0.0000 C   0  0  0  0  0  0  0  0  0  0  0  0
   11.0851    0.0000    0.0000 C   0  0  0  0  0  0  0  0  0  0  0  0
   12.4708   -0.8000    0.0000 C   0  0  0  0  0  0  0  0  0  0  0  0
   13.8564    0.0000    0.0000 C   0  0  0  0  0  0  0  0  0  0  0  0
  1  2  1  0  0  0  0
  2  3  1  0  0  0  0
  2 16  2  0  0  0  0
  3  4  2  0  0  0  0
  4  5  1  0  0  0  0
  4  6  1  0  0  0  0
  6  7  1  0  0  0  0
  6 15  2  0  0  0  0
  7  8  2  0  0  0  0
  8  9  1  0  0  0  0
  8 21  1  0  0  0  0
  9 10  1  0  0  0  0
  9 14  2  0  0  0  0
 10 11  2  0  0  0  0
 11 12  1  0  0  0  0
 12 13  2  0  0  0  0
 12 17  1  0  0  0  0
 13 14  1  0  0  0  0
 14 15  1  0  0  0  0
 15 16  1  0  0  0  0
 17 18  1  0  0  0  0
 17 19  1  0  0  0  0
 17 20  1  0  0  0  0
 21 22  1  1  0  0  0
 21 23  1  0  0  0  0
 23 24  1  0  0  0  0
 24 25  1  0  0  0  0
 25 26  1  0  0  0  0
 25 30  1  0  0  0  0
 26 27  1  0  0  0  0
 27 28  1  0  0  0  0
 28 29  1  0  0  0  0
 30 31  1  0  0  0  0
 31 32  1  0  0  0  0
 32 33  1  0  0  0  0
M  END
> <Acceptable>
false

> <IC50>
0.0308

$$$$

Generated by Molecular Materials Informatics

 26 28  0  0  0  0  0  0  0  0999 V2000
   -6.3028   -1.1113    0.0000 Cl  0  0  0  0  0  0  0  0  0  0  0  0
   -4.7271   -0.8335    0.0000 C   0  0  0  0  0  0  0  0  0  0  0  0
   -3.6986   -2.0592    0.0000 C   0  0  0  0  0  0  0  0  0  0  0  0
   -2.1229   -1.7813    0.0000 C   0  0  0  0  0  0  0  0  0  0  0  0
   -1.5757   -0.2778    0.0000 C   0  0  0  0  0  0  0  0  0  0  0  0
   -2.6042    0.9478    0.0000 C   0  0  0  0  0  0  0  0  0  0  0  0
   -4.1798    0.6700    0.0000 C   0  0  0  0  0  0  0  0  0  0  0  0
    0.0000    0.0000    0.0000 C   0  0  0  0  0  0  0  0  0  0  0  0
   -0.5472    1.5035    0.0000 O   0  0  0  0  0  0  0  0  0  0  0  0
    0.0000   -1.6000    0.0000 C   0  0  0  0  0  0  0  0  0  0  0  0
    1.3856   -2.4000    0.0000 C   0  0  0  0  0  0  0  0  0  0  0  0
    2.7713   -1.6000    0.0000 N   0  0  0  0  0  0  0  0  0  0  0  0
    2.7713    0.0000    0.0000 C   0  0  0  0  0  0  0  0  0  0  0  0
    1.3856    0.8000    0.0000 C   0  0  0  0  0  0  0  0  0  0  0  0
    4.1569   -2.4000    0.0000 C   0  0  0  0  0  0  0  0  0  0  0  0
    5.5426   -1.6000    0.0000 C   0  0  0  0  0  0  0  0  0  0  0  0
    6.9282   -2.4000    0.0000 C   0  0  0  0  0  0  0  0  0  0  0  0
    8.3138   -1.6000    0.0000 C   0  0  0  0  0  0  0  0  0  0  0  0
    8.3138    0.0000    0.0000 O   0  0  0  0  0  0  0  0  0  0  0  0
    9.6995   -2.4000    0.0000 C   0  0  0  0  0  0  0  0  0  0  0  0
    9.6995   -4.0000    0.0000 C   0  0  0  0  0  0  0  0  0  0  0  0
   11.0851   -4.8000    0.0000 C   0  0  0  0  0  0  0  0  0  0  0  0
   12.4708   -4.0000    0.0000 C   0  0  0  0  0  0  0  0  0  0  0  0
   13.8564   -4.8000    0.0000 F   0  0  0  0  0  0  0  0  0  0  0  0
   12.4708   -2.4000    0.0000 C   0  0  0  0  0  0  0  0  0  0  0  0
   11.0851   -1.6000    0.0000 C   0  0  0  0  0  0  0  0  0  0  0  0
  1  2  1  0  0  0  0
  2  3  1  0  0  0  0
  2  7  2  0  0  0  0
  3  4  2  0  0  0  0
  4  5  1  0  0  0  0
  5  6  2  0  0  0  0
  5  8  1  0  0  0  0
  6  7  1  0  0  0  0
  8  9  1  1  0  0  0
  8 10  1  0  0  0  0
  8 14  1  0  0  0  0
 10 11  1  0  0  0  0
 11 12  1  0  0  0  0
 12 13  1  0  0  0  0
 12 15  1  6  0  0  0
 13 14  1  0  0  0  0
 15 16  1  0  0  0  0
 16 17  1  0  0  0  0
 17 18  1  0  0  0  0
 18 19  2  0  0  0  0
 18 20  1  0  0  0  0
 20 21  1  0  0  0  0
 20 26  2  0  0  0  0
 21 22  2  0  0  0  0
 22 23  1  0  0  0  0
 23 24  1  0  0  0  0
 23 25  2  0  0  0  0
 25 26  1  0  0  0  0
M  END
> <Acceptable>
false

> <IC50>
0.019

$$$$

Generated by Molecular Materials Informatics

 27 31  0  0  0  0  0  0  0  0999 V2000
    0.8000    3.1745    0.0000 O   0  0  0  0  0  0  0  0  0  0  0  0
   -3.2000    2.7713    0.0000 O   0  0  0  0  0  0  0  0  0  0  0  0
    4.8000    2.7713    0.0000 O   0  0  0  0  0  0  0  0  0  0  0  0
   -5.6000    1.3856    0.0000 O   0  0  0  0  0  0  0  0  0  0  0  0
    7.2000    1.3856    0.0000 O   0  0  0  0  0  0  0  0  0  0  0  0
    1.1620   -2.4716    0.0000 N   0  0  0  0  0  0  0  0  0  0  0  0
    0.0000    0.0000    0.0000 C   0  0  0  0  0  0  0  0  0  0  0  0
   -0.8000   -1.3856    0.0000 C   0  0  0  0  0  0  0  0  0  0  0  0
    0.0000   -2.7713    0.0000 C   0  0  0  0  0  0  0  0  0  0  0  0
   -0.8000    1.3856    0.0000 C   0  0  0  0  0  0  0  0  0  0  0  0
    1.1620   -0.2997    0.0000 C   0  0  0  0  0  0  0  0  0  0  0  0
    1.6000    0.0000    0.0000 C   0  0  0  0  0  0  0  0  0  0  0  0
    1.6000   -2.7713    0.0000 C   0  0  0  0  0  0  0  0  0  0  0  0
    1.6725   -1.3856    0.0000 C   0  0  0  0  0  0  0  0  0  0  0  0
    2.4000   -1.3856    0.0000 C   0  0  0  0  0  0  0  0  0  0  0  0
   -2.4000    1.3856    0.0000 C   0  0  0  0  0  0  0  0  0  0  0  0
   -2.4000   -1.3856    0.0000 C   0  0  0  0  0  0  0  0  0  0  0  0
    2.4000    1.3856    0.0000 C   0  0  0  0  0  0  0  0  0  0  0  0
   -3.2000    0.0000    0.0000 C   0  0  0  0  0  0  0  0  0  0  0  0
    2.1827   -3.7037    0.0000 C   0  0  0  0  0  0  0  0  0  0  0  0
    4.0000   -1.3856    0.0000 C   0  0  0  0  0  0  0  0  0  0  0  0
    4.0000    1.3856    0.0000 C   0  0  0  0  0  0  0  0  0  0  0  0
    4.8000    0.0000    0.0000 C   0  0  0  0  0  0  0  0  0  0  0  0
   -4.8000    2.7713    0.0000 C   0  0  0  0  0  0  0  0  0  0  0  0
   -5.6000    4.1569    0.0000 C   0  0  0  0  0  0  0  0  0  0  0  0
    6.4000    2.7713    0.0000 C   0  0  0  0  0  0  0  0  0  0  0  0
    7.2000    4.1569    0.0000 C   0  0  0  0  0  0  0  0  0  0  0  0
 10  1  1  6  0  0  0
  1 18  1  0  0  0  0
 16  2  1  6  0  0  0
  2 24  1  0  0  0  0
  3 22  1  0  0  0  0
  3 26  1  0  0  0  0
  4 24  2  0  0  0  0
  5 26  2  0  0  0  0
  6  9  1  0  0  0  0
  6 14  1  0  0  0  0
  6 20  1  6  0  0  0
  7  8  1  0  0  0  0
  7 10  1  0  0  0  0
  7 11  1  0  0  0  0
  7 12  1  6  0  0  0
  8  9  1  0  0  0  0
  8 17  1  6  0  0  0
  9 13  1  6  0  0  0
 10 16  1  0  0  0  0
 11 14  1  0  0  0  0
 12 15  2  0  0  0  0
 12 18  1  0  0  0  0
 13 15  1  0  0  0  0
 15 21  1  0  0  0  0
 16 19  1  0  0  0  0
 17 19  2  0  0  0  0
 18 22  2  0  0  0  0
 21 23  2  0  0  0  0
 22 23  1  0  0  0  0
 24 25  1  0  0  0  0
 26 27  1  0  0  0  0
M  END
> <Acceptable>
true

> <IC50>
427

$$$$

Generated by Molecular Materials Informatics

 22 24  0  0  0  0  0  0  0  0999 V2000
    2.4000    1.3856    0.0000 O   0  0  0  0  0  0  0  0  0  0  0  0
    0.0000   -2.7713    0.0000 O   0  0  0  0  0  0  0  0  0  0  0  0
   -2.4000   -1.3856    0.0000 O   0  0  0  0  0  0  0  0  0  0  0  0
    9.6000    0.0000    0.0000 O   0  0  0  0  0  0  0  0  0  0  0  0
    8.0000    2.7713    0.0000 O   0  0  0  0  0  0  0  0  0  0  0  0
   -2.4000    4.1569    0.0000 O   0  0  0  0  0  0  0  0  0  0  0  0
    3.2000    0.0000    0.0000 C   0  0  0  0  0  0  0  0  0  0  0  0
    2.4000   -1.3856    0.0000 C   0  0  0  0  0  0  0  0  0  0  0  0
    4.8000    0.0000    0.0000 C   0  0  0  0  0  0  0  0  0  0  0  0
    0.0000    0.0000    0.0000 C   0  0  0  0  0  0  0  0  0  0  0  0
    0.8000   -1.3856    0.0000 C   0  0  0  0  0  0  0  0  0  0  0  0
    0.8000    1.3856    0.0000 C   0  0  0  0  0  0  0  0  0  0  0  0
    5.6000    1.3856    0.0000 C   0  0  0  0  0  0  0  0  0  0  0  0
    5.6000   -1.3856    0.0000 C   0  0  0  0  0  0  0  0  0  0  0  0
   -1.6000    0.0000    0.0000 C   0  0  0  0  0  0  0  0  0  0  0  0
    0.0000    2.7713    0.0000 C   0  0  0  0  0  0  0  0  0  0  0  0
    7.2000    1.3856    0.0000 C   0  0  0  0  0  0  0  0  0  0  0  0
   -2.4000    1.3856    0.0000 C   0  0  0  0  0  0  0  0  0  0  0  0
   -1.6000    2.7713    0.0000 C   0  0  0  0  0  0  0  0  0  0  0  0
    7.2000   -1.3856    0.0000 C   0  0  0  0  0  0  0  0  0  0  0  0
    8.0000    0.0000    0.0000 C   0  0  0  0  0  0  0  0  0  0  0  0
   10.4000   -1.3856    0.0000 C   0  0  0  0  0  0  0  0  0  0  0  0
  1  7  1  0  0  0  0
  1 12  1  0  0  0  0
  2 11  2  0  0  0  0
  3 15  1  0  0  0  0
  4 21  1  0  0  0  0
  4 22  1  0  0  0  0
  5 17  1  0  0  0  0
  6 19  1  0  0  0  0
  7  8  1  0  0  0  0
  7  9  1  6  0  0  0
  8 11  1  0  0  0  0
  9 13  2  0  0  0  0
  9 14  1  0  0  0  0
 10 11  1  0  0  0  0
 10 12  2  0  0  0  0
 10 15  1  0  0  0  0
 12 16  1  0  0  0  0
 13 17  1  0  0  0  0
 14 20  2  0  0  0  0
 15 18  2  0  0  0  0
 16 19  2  0  0  0  0
 17 21  2  0  0  0  0
 18 19  1  0  0  0  0
 20 21  1  0  0  0  0
M  END
> <Acceptable>
true

> <IC50>
288.8

$$$$

Generated by Molecular Materials Informatics

 27 28  0  0  0  0  0  0  0  0999 V2000
   -1.3856   -2.4000    0.0000 S   0  0  0  0  0  0  0  0  0  0  0  0
   11.0851   -1.6000    0.0000 F   0  0  0  0  0  0  0  0  0  0  0  0
   12.4708    0.8000    0.0000 F   0  0  0  0  0  0  0  0  0  0  0  0
   12.4708   -0.8000    0.0000 F   0  0  0  0  0  0  0  0  0  0  0  0
    0.0000    3.2000    0.0000 O   0  0  0  0  0  0  0  0  0  0  0  0
   -2.7713    0.0000    0.0000 O   0  0  0  0  0  0  0  0  0  0  0  0
    5.5426    0.0000    0.0000 O   0  0  0  0  0  0  0  0  0  0  0  0
   -2.1856   -1.0144    0.0000 O   0  0  0  0  0  0  0  0  0  0  0  0
   -0.5856   -3.7856    0.0000 O   0  0  0  0  0  0  0  0  0  0  0  0
    0.0000   -1.6000    0.0000 N   0  0  0  0  0  0  0  0  0  0  0  0
    0.0000    0.0000    0.0000 C   0  0  0  0  0  0  0  0  0  0  0  0
   -1.3856    0.8000    0.0000 C   0  0  0  0  0  0  0  0  0  0  0  0
   -1.3856    2.4000    0.0000 C   0  0  0  0  0  0  0  0  0  0  0  0
    1.3856    0.8000    0.0000 C   0  0  0  0  0  0  0  0  0  0  0  0
    1.3856    2.4000    0.0000 C   0  0  0  0  0  0  0  0  0  0  0  0
   -1.9329    3.9035    0.0000 C   0  0  0  0  0  0  0  0  0  0  0  0
   -2.9613    2.1222    0.0000 C   0  0  0  0  0  0  0  0  0  0  0  0
    2.7713    0.0000    0.0000 C   0  0  0  0  0  0  0  0  0  0  0  0
    1.3856   -2.4000    0.0000 C   0  0  0  0  0  0  0  0  0  0  0  0
    2.7713    3.2000    0.0000 C   0  0  0  0  0  0  0  0  0  0  0  0
    4.1569    0.8000    0.0000 C   0  0  0  0  0  0  0  0  0  0  0  0
    4.1569    2.4000    0.0000 C   0  0  0  0  0  0  0  0  0  0  0  0
   -2.7713   -3.2000    0.0000 C   0  0  0  0  0  0  0  0  0  0  0  0
    6.9282    0.8000    0.0000 C   0  0  0  0  0  0  0  0  0  0  0  0
    8.3138    0.0000    0.0000 C   0  0  0  0  0  0  0  0  0  0  0  0
    9.6995    0.8000    0.0000 C   0  0  0  0  0  0  0  0  0  0  0  0
   11.0851    0.0000    0.0000 C   0  0  0  0  0  0  0  0  0  0  0  0
  1  8  2  0  0  0  0
  1  9  2  0  0  0  0
  1 10  1  0  0  0  0
  1 23  1  0  0  0  0
  2 27  1  0  0  0  0
  3 27  1  0  0  0  0
  4 27  1  0  0  0  0
  5 13  1  0  0  0  0
  5 15  1  0  0  0  0
 12  6  1  6  0  0  0
  7 21  1  0  0  0  0
  7 24  1  0  0  0  0
 10 11  1  0  0  0  0
 10 19  1  1  0  0  0
 11 12  1  0  0  0  0
 11 14  1  1  0  0  0
 12 13  1  0  0  0  0
 13 16  1  0  0  0  0
 13 17  1  0  0  0  0
 14 15  2  0  0  0  0
 14 18  1  0  0  0  0
 15 20  1  0  0  0  0
 18 21  2  0  0  0  0
 20 22  2  0  0  0  0
 21 22  1  0  0  0  0
 24 25  1  0  0  0  0
 25 26  1  0  0  0  0
 26 27  1  0  0  0  0
M  END
> <Acceptable>
false

> <IC50>
10

$$$$

Generated by Molecular Materials Informatics

 29 32  0  0  0  0  0  0  0  0999 V2000
    0.0000    0.0000    0.0000 C   0  0  0  0  0  0  0  0  0  0  0  0
   -0.3560    1.5599    0.0000 C   0  0  0  0  0  0  0  0  0  0  0  0
   -0.9976   -1.2509    0.0000 C   0  0  0  0  0  0  0  0  0  0  0  0
    1.5599   -0.3560    0.0000 C   0  0  0  0  0  0  0  0  0  0  0  0
   -1.7976    2.2541    0.0000 C   0  0  0  0  0  0  0  0  0  0  0  0
    0.9660    2.4612    0.0000 C   0  0  0  0  0  0  0  0  0  0  0  0
   -2.5976   -1.2509    0.0000 C   0  0  0  0  0  0  0  0  0  0  0  0
   -0.1976   -2.6366    0.0000 C   0  0  0  0  0  0  0  0  0  0  0  0
    2.0315   -1.8849    0.0000 C   0  0  0  0  0  0  0  0  0  0  0  0
    2.6482    0.8169    0.0000 C   0  0  0  0  0  0  0  0  0  0  0  0
   -1.9172    3.8496    0.0000 C   0  0  0  0  0  0  0  0  0  0  0  0
    0.8464    4.0567    0.0000 C   0  0  0  0  0  0  0  0  0  0  0  0
   -3.3976   -2.6366    0.0000 C   0  0  0  0  0  0  0  0  0  0  0  0
   -0.9976   -4.0222    0.0000 C   0  0  0  0  0  0  0  0  0  0  0  0
    3.5914   -2.2410    0.0000 C   0  0  0  0  0  0  0  0  0  0  0  0
    4.2080    0.4608    0.0000 C   0  0  0  0  0  0  0  0  0  0  0  0
   -0.5952    4.7509    0.0000 C   0  0  0  0  0  0  0  0  0  0  0  0
   -2.5976   -4.0222    0.0000 C   0  0  0  0  0  0  0  0  0  0  0  0
    4.6797   -1.0681    0.0000 N   0  0  0  0  0  0  0  0  0  0  0  0
    6.2395   -1.4241    0.0000 C   0  0  0  0  0  0  0  0  0  0  0  0
    7.3278   -0.2512    0.0000 C   0  0  0  0  0  0  0  0  0  0  0  0
    8.8877   -0.6073    0.0000 C   0  0  0  0  0  0  0  0  0  0  0  0
    9.3593   -2.1362    0.0000 O   0  0  0  0  0  0  0  0  0  0  0  0
    9.9760    0.5656    0.0000 O   0  0  0  0  0  0  0  0  0  0  0  0
   -3.3976   -5.4079    0.0000 F   0  0  0  0  0  0  0  0  0  0  0  0
   -3.2391    1.5599    0.0000 O   0  0  0  0  0  0  0  0  0  0  0  0
   -3.5952    0.0000    0.0000 C   0  0  0  0  0  0  0  0  0  0  0  0
    7.4772    1.3418    0.0000 C   0  0  0  0  0  0  0  0  0  0  0  0
    6.3070    0.9808    0.0000 C   0  0  0  0  0  0  0  0  0  0  0  0
  1  2  1  0  0  0  0
  1  3  1  0  0  0  0
  1  4  2  0  0  0  0
  2  5  2  0  0  0  0
  2  6  1  0  0  0  0
  3  7  2  0  0  0  0
  3  8  1  0  0  0  0
  4  9  1  0  0  0  0
  4 10  1  0  0  0  0
  5 11  1  0  0  0  0
  5 26  1  0  0  0  0
  6 12  2  0  0  0  0
  7 13  1  0  0  0  0
  7 27  1  0  0  0  0
  8 14  2  0  0  0  0
  9 15  1  0  0  0  0
 10 16  1  0  0  0  0
 11 17  2  0  0  0  0
 12 17  1  0  0  0  0
 13 18  2  0  0  0  0
 14 18  1  0  0  0  0
 15 19  1  0  0  0  0
 16 19  1  0  0  0  0
 18 25  1  0  0  0  0
 19 20  1  6  0  0  0
 20 21  1  0  0  0  0
 21 22  1  0  0  0  0
 21 28  1  0  0  0  0
 21 29  1  0  0  0  0
 22 23  1  0  0  0  0
 22 24  2  0  0  0  0
 26 27  1  0  0  0  0
M  END
> <Acceptable>
false

> <IC50>
10

$$$$

Generated by Molecular Materials Informatics

 17 18  0  0  0  0  0  0  0  0999 V2000
    4.1569    2.4000    0.0000 Cl  0  0  0  0  0  0  0  0  0  0  0  0
    2.7713    1.6000    0.0000 C   0  0  0  0  0  0  0  0  0  0  0  0
    1.3856    2.4000    0.0000 C   0  0  0  0  0  0  0  0  0  0  0  0
    0.0000    1.6000    0.0000 C   0  0  0  0  0  0  0  0  0  0  0  0
   -1.3856    2.4000    0.0000 N   0  0  0  0  0  0  0  0  0  0  0  0
   -2.7713    1.6000    0.0000 C   0  0  0  0  0  0  0  0  0  0  0  0
   -2.7713    0.0000    0.0000 N   0  0  0  0  0  0  0  0  0  0  0  0
   -1.3856   -0.8000    0.0000 S   0  0  0  0  0  0  0  0  0  0  0  0
   -2.4141   -2.0257    0.0000 O   0  0  0  0  0  0  0  0  0  0  0  0
   -0.3572   -2.0257    0.0000 O   0  0  0  0  0  0  0  0  0  0  0  0
    0.0000    0.0000    0.0000 C   0  0  0  0  0  0  0  0  0  0  0  0
    1.3856   -0.8000    0.0000 C   0  0  0  0  0  0  0  0  0  0  0  0
    2.7713    0.0000    0.0000 C   0  0  0  0  0  0  0  0  0  0  0  0
    4.1569   -0.8000    0.0000 S   0  0  0  0  0  0  0  0  0  0  0  0
    4.9569    0.5856    0.0000 O   0  0  0  0  0  0  0  0  0  0  0  0
    3.3569   -2.1856    0.0000 O   0  0  0  0  0  0  0  0  0  0  0  0
    5.5426   -1.6000    0.0000 N   0  0  0  0  0  0  0  0  0  0  0  0
  1  2  1  0  0  0  0
  2  3  1  0  0  0  0
  2 13  2  0  0  0  0
  3  4  2  0  0  0  0
  4  5  1  0  0  0  0
  4 11  1  0  0  0  0
  5  6  1  0  0  0  0
  6  7  1  0  0  0  0
  7  8  1  0  0  0  0
  8  9  2  0  0  0  0
  8 10  2  0  0  0  0
  8 11  1  0  0  0  0
 11 12  2  0  0  0  0
 12 13  1  0  0  0  0
 13 14  1  0  0  0  0
 14 15  2  0  0  0  0
 14 16  2  0  0  0  0
 14 17  1  0  0  0  0
M  END
> <Acceptable>
true

> <IC50>
N/A

$$$$

Generated by Molecular Materials Informatics

 22 26  0  0  0  0  0  0  0  0999 V2000
   -3.2000    2.7713    0.0000 O   0  0  0  0  0  0  0  0  0  0  0  0
   -2.4000    1.3856    0.0000 C   0  0  0  0  0  0  0  0  0  0  0  0
   -3.2000    0.0000    0.0000 C   0  0  0  0  0  0  0  0  0  0  0  0
   -2.4000   -1.3856    0.0000 C   0  0  0  0  0  0  0  0  0  0  0  0
   -0.8000   -1.3856    0.0000 C   0  0  0  0  0  0  0  0  0  0  0  0
    0.0000   -2.7713    0.0000 C   0  0  0  0  0  0  0  0  0  0  0  0
    1.1620   -2.4716    0.0000 N   0  0  0  0  0  0  0  0  0  0  0  0
    2.1827   -3.7037    0.0000 C   0  0  0  0  0  0  0  0  0  0  0  0
    1.6725   -1.3856    0.0000 C   0  0  0  0  0  0  0  0  0  0  0  0
    1.1620   -0.2997    0.0000 C   0  0  0  0  0  0  0  0  0  0  0  0
    0.0000    0.0000    0.0000 C   0  0  0  0  0  0  0  0  0  0  0  0
    1.6000    0.0000    0.0000 C   0  0  0  0  0  0  0  0  0  0  0  0
    2.4000   -1.3856    0.0000 C   0  0  0  0  0  0  0  0  0  0  0  0
    4.0000   -1.3856    0.0000 C   0  0  0  0  0  0  0  0  0  0  0  0
    4.8000    0.0000    0.0000 C   0  0  0  0  0  0  0  0  0  0  0  0
    4.0000    1.3856    0.0000 C   0  0  0  0  0  0  0  0  0  0  0  0
    4.8000    2.7713    0.0000 O   0  0  0  0  0  0  0  0  0  0  0  0
    6.4000    2.7713    0.0000 C   0  0  0  0  0  0  0  0  0  0  0  0
    2.4000    1.3856    0.0000 C   0  0  0  0  0  0  0  0  0  0  0  0
    0.8000    3.1745    0.0000 O   0  0  0  0  0  0  0  0  0  0  0  0
   -0.8000    1.3856    0.0000 C   0  0  0  0  0  0  0  0  0  0  0  0
    1.6000   -2.7713    0.0000 C   0  0  0  0  0  0  0  0  0  0  0  0
  1  2  2  0  0  0  0
  2  3  1  0  0  0  0
  2 21  1  0  0  0  0
  3  4  1  0  0  0  0
  5  4  1  6  0  0  0
  5  6  1  0  0  0  0
  5 11  1  0  0  0  0
  6  7  1  0  0  0  0
  6 22  1  6  0  0  0
  7  8  1  1  0  0  0
  7  9  1  0  0  0  0
  9 10  1  0  0  0  0
 11 10  1  1  0  0  0
 11 12  1  0  0  0  0
 11 21  1  0  0  0  0
 12 13  1  0  0  0  0
 12 19  2  0  0  0  0
 13 14  2  0  0  0  0
 13 22  1  0  0  0  0
 14 15  1  0  0  0  0
 15 16  2  0  0  0  0
 16 17  1  0  0  0  0
 16 19  1  0  0  0  0
 17 18  1  0  0  0  0
 19 20  1  0  0  0  0
 21 20  1  6  0  0  0
M  END
> <Acceptable>
true

> <IC50>
N/A

$$$$

Generated by Molecular Materials Informatics

 20 21  0  0  0  0  0  0  0  0999 V2000
   -4.1569   -0.8000    0.0000 S   0  0  0  0  0  0  0  0  0  0  0  0
   -3.1285   -2.0257    0.0000 O   0  0  0  0  0  0  0  0  0  0  0  0
   -5.1854   -2.0257    0.0000 O   0  0  0  0  0  0  0  0  0  0  0  0
   -5.5426    0.0000    0.0000 N   0  0  0  0  0  0  0  0  0  0  0  0
   -5.5426    1.6000    0.0000 C   0  0  0  0  0  0  0  0  0  0  0  0
   -4.1569    2.4000    0.0000 N   0  0  0  0  0  0  0  0  0  0  0  0
   -2.7713    1.6000    0.0000 C   0  0  0  0  0  0  0  0  0  0  0  0
   -1.3856    2.4000    0.0000 C   0  0  0  0  0  0  0  0  0  0  0  0
    0.0000    1.6000    0.0000 C   0  0  0  0  0  0  0  0  0  0  0  0
    0.0000    0.0000    0.0000 C   0  0  0  0  0  0  0  0  0  0  0  0
    1.3856   -0.8000    0.0000 S   0  0  0  0  0  0  0  0  0  0  0  0
    2.1856    0.5856    0.0000 O   0  0  0  0  0  0  0  0  0  0  0  0
    0.5856   -2.1856    0.0000 O   0  0  0  0  0  0  0  0  0  0  0  0
    2.7713   -1.6000    0.0000 N   0  0  0  0  0  0  0  0  0  0  0  0
   -1.3856   -0.8000    0.0000 C   0  0  0  0  0  0  0  0  0  0  0  0
   -2.7713    0.0000    0.0000 C   0  0  0  0  0  0  0  0  0  0  0  0
    1.3856    2.4000    0.0000 C   0  0  0  0  0  0  0  0  0  0  0  0
    2.7713    1.6000    0.0000 F   0  0  0  0  0  0  0  0  0  0  0  0
    1.3856    4.0000    0.0000 F   0  0  0  0  0  0  0  0  0  0  0  0
    2.7713    3.2000    0.0000 F   0  0  0  0  0  0  0  0  0  0  0  0
  1  2  2  0  0  0  0
  1  3  2  0  0  0  0
  1  4  1  0  0  0  0
  1 16  1  0  0  0  0
  4  5  1  0  0  0  0
  5  6  1  0  0  0  0
  6  7  1  0  0  0  0
  7  8  1  0  0  0  0
  7 16  2  0  0  0  0
  8  9  2  0  0  0  0
  9 10  1  0  0  0  0
  9 17  1  0  0  0  0
 10 11  1  0  0  0  0
 10 15  2  0  0  0  0
 11 12  2  0  0  0  0
 11 13  2  0  0  0  0
 11 14  1  0  0  0  0
 15 16  1  0  0  0  0
 17 18  1  0  0  0  0
 17 19  1  0  0  0  0
 17 20  1  0  0  0  0
M  END
> <Acceptable>
true

> <IC50>
N/A

$$$$

Generated by Molecular Materials Informatics

 21 25  0  0  0  0  0  0  0  0999 V2000
   -3.2000    2.7713    0.0000 O   0  0  0  0  0  0  0  0  0  0  0  0
   -2.4000    1.3856    0.0000 C   0  0  0  0  0  0  0  0  0  0  0  0
   -3.2000    0.0000    0.0000 C   0  0  0  0  0  0  0  0  0  0  0  0
   -2.4000   -1.3856    0.0000 C   0  0  0  0  0  0  0  0  0  0  0  0
   -0.8000   -1.3856    0.0000 C   0  0  0  0  0  0  0  0  0  0  0  0
    0.0000   -2.7713    0.0000 C   0  0  0  0  0  0  0  0  0  0  0  0
    1.1620   -2.4716    0.0000 N   0  0  0  0  0  0  0  0  0  0  0  0
    2.1827   -3.7037    0.0000 C   0  0  0  0  0  0  0  0  0  0  0  0
    1.6725   -1.3856    0.0000 C   0  0  0  0  0  0  0  0  0  0  0  0
    1.1620   -0.2997    0.0000 C   0  0  0  0  0  0  0  0  0  0  0  0
    0.0000    0.0000    0.0000 C   0  0  0  0  0  0  0  0  0  0  0  0
    1.6000    0.0000    0.0000 C   0  0  0  0  0  0  0  0  0  0  0  0
    2.4000   -1.3856    0.0000 C   0  0  0  0  0  0  0  0  0  0  0  0
    4.0000   -1.3856    0.0000 C   0  0  0  0  0  0  0  0  0  0  0  0
    4.8000    0.0000    0.0000 C   0  0  0  0  0  0  0  0  0  0  0  0
    4.0000    1.3856    0.0000 C   0  0  0  0  0  0  0  0  0  0  0  0
    4.8000    2.7713    0.0000 O   0  0  0  0  0  0  0  0  0  0  0  0
    2.4000    1.3856    0.0000 C   0  0  0  0  0  0  0  0  0  0  0  0
    0.8000    3.1745    0.0000 O   0  0  0  0  0  0  0  0  0  0  0  0
   -0.8000    1.3856    0.0000 C   0  0  0  0  0  0  0  0  0  0  0  0
    1.6000   -2.7713    0.0000 C   0  0  0  0  0  0  0  0  0  0  0  0
  1  2  2  0  0  0  0
  2  3  1  0  0  0  0
  2 20  1  0  0  0  0
  3  4  1  0  0  0  0
  5  4  1  6  0  0  0
  5  6  1  0  0  0  0
  5 11  1  0  0  0  0
  6  7  1  0  0  0  0
  6 21  1  6  0  0  0
  7  8  1  1  0  0  0
  7  9  1  0  0  0  0
  9 10  1  0  0  0  0
 11 10  1  1  0  0  0
 11 12  1  0  0  0  0
 11 20  1  0  0  0  0
 12 13  1  0  0  0  0
 12 18  2  0  0  0  0
 13 14  2  0  0  0  0
 13 21  1  0  0  0  0
 14 15  1  0  0  0  0
 15 16  2  0  0  0  0
 16 17  1  0  0  0  0
 16 18  1  0  0  0  0
 18 19  1  0  0  0  0
 20 19  1  6  0  0  0
M  END
> <Acceptable>
true

> <IC50>
N/A

$$$$

Generated by Molecular Materials Informatics

 26 28  0  0  0  0  0  0  0  0999 V2000
   -5.5426   -3.2000    0.0000 Cl  0  0  0  0  0  0  0  0  0  0  0  0
    8.3138   -3.2000    0.0000 O   0  0  0  0  0  0  0  0  0  0  0  0
   12.4708   -2.4000    0.0000 O   0  0  0  0  0  0  0  0  0  0  0  0
    1.3856   -0.8000    0.0000 N   0  0  0  0  0  0  0  0  0  0  0  0
    4.1569   -2.4000    0.0000 N   0  0  0  0  0  0  0  0  0  0  0  0
    1.3856   -2.4000    0.0000 C   0  0  0  0  0  0  0  0  0  0  0  0
    2.7713    0.0000    0.0000 C   0  0  0  0  0  0  0  0  0  0  0  0
    2.7713   -3.2000    0.0000 C   0  0  0  0  0  0  0  0  0  0  0  0
    4.1569   -0.8000    0.0000 C   0  0  0  0  0  0  0  0  0  0  0  0
    0.0000    0.0000    0.0000 C   0  0  0  0  0  0  0  0  0  0  0  0
    5.5426   -3.2000    0.0000 C   0  0  0  0  0  0  0  0  0  0  0  0
   -1.3856   -0.8000    0.0000 C   0  0  0  0  0  0  0  0  0  0  0  0
    0.0000    1.6000    0.0000 C   0  0  0  0  0  0  0  0  0  0  0  0
    6.9282   -2.4000    0.0000 C   0  0  0  0  0  0  0  0  0  0  0  0
   -2.7713    0.0000    0.0000 C   0  0  0  0  0  0  0  0  0  0  0  0
   -1.3856   -2.4000    0.0000 C   0  0  0  0  0  0  0  0  0  0  0  0
    1.3856    2.4000    0.0000 C   0  0  0  0  0  0  0  0  0  0  0  0
   -1.3856    2.4000    0.0000 C   0  0  0  0  0  0  0  0  0  0  0  0
   -4.1569   -0.8000    0.0000 C   0  0  0  0  0  0  0  0  0  0  0  0
   -2.7713   -3.2000    0.0000 C   0  0  0  0  0  0  0  0  0  0  0  0
    1.3856    4.0000    0.0000 C   0  0  0  0  0  0  0  0  0  0  0  0
   -1.3856    4.0000    0.0000 C   0  0  0  0  0  0  0  0  0  0  0  0
   -4.1569   -2.4000    0.0000 C   0  0  0  0  0  0  0  0  0  0  0  0
    0.0000    4.8000    0.0000 C   0  0  0  0  0  0  0  0  0  0  0  0
    9.6995   -2.4000    0.0000 C   0  0  0  0  0  0  0  0  0  0  0  0
   11.0851   -3.2000    0.0000 C   0  0  0  0  0  0  0  0  0  0  0  0
  1 23  1  0  0  0  0
  2 14  1  0  0  0  0
  2 25  1  0  0  0  0
  3 26  1  0  0  0  0
  4  6  1  6  0  0  0
  4  7  1  0  0  0  0
  4 10  1  0  0  0  0
  5  8  1  0  0  0  0
  5  9  1  0  0  0  0
  5 11  1  1  0  0  0
  6  8  1  0  0  0  0
  7  9  1  0  0  0  0
 10 12  1  0  0  0  0
 10 13  1  1  0  0  0
 11 14  1  0  0  0  0
 12 15  2  0  0  0  0
 12 16  1  0  0  0  0
 13 17  2  0  0  0  0
 13 18  1  0  0  0  0
 15 19  1  0  0  0  0
 16 20  2  0  0  0  0
 17 21  1  0  0  0  0
 18 22  2  0  0  0  0
 19 23  2  0  0  0  0
 20 23  1  0  0  0  0
 21 24  2  0  0  0  0
 22 24  1  0  0  0  0
 25 26  1  0  0  0  0
M  END
> <Acceptable>
false

> <IC50>
0.62

$$$$

Generated by Molecular Materials Informatics

 23 24  0  0  0  0  0  0  0  0999 V2000
   -4.1569    2.4000    0.0000 Cl  0  0  0  0  0  0  0  0  0  0  0  0
   -2.7713    1.6000    0.0000 C   0  0  0  0  0  0  0  0  0  0  0  0
   -1.3856    2.4000    0.0000 C   0  0  0  0  0  0  0  0  0  0  0  0
    0.0000    1.6000    0.0000 C   0  0  0  0  0  0  0  0  0  0  0  0
    0.0000    0.0000    0.0000 C   0  0  0  0  0  0  0  0  0  0  0  0
   -1.3856   -0.8000    0.0000 C   0  0  0  0  0  0  0  0  0  0  0  0
   -1.3856   -2.4000    0.0000 N   0  0  0  0  0  0  0  0  0  0  0  0
    0.0000   -3.2000    0.0000 C   0  0  0  0  0  0  0  0  0  0  0  0
    1.3856   -2.4000    0.0000 C   0  0  0  0  0  0  0  0  0  0  0  0
    1.3856   -0.8000    0.0000 C   0  0  0  0  0  0  0  0  0  0  0  0
    2.7713    0.0000    0.0000 N   0  0  0  0  0  0  0  0  0  0  0  0
    4.1569   -0.8000    0.0000 C   0  0  0  0  0  0  0  0  0  0  0  0
    4.1569   -2.4000    0.0000 C   0  0  0  0  0  0  0  0  0  0  0  0
    5.5426    0.0000    0.0000 C   0  0  0  0  0  0  0  0  0  0  0  0
    6.9282   -0.8000    0.0000 C   0  0  0  0  0  0  0  0  0  0  0  0
    8.3138    0.0000    0.0000 C   0  0  0  0  0  0  0  0  0  0  0  0
    9.6995   -0.8000    0.0000 N   0  0  0  0  0  0  0  0  0  0  0  0
    9.6995   -2.4000    0.0000 C   0  0  0  0  0  0  0  0  0  0  0  0
   11.0851   -3.2000    0.0000 C   0  0  0  0  0  0  0  0  0  0  0  0
   11.0851    0.0000    0.0000 C   0  0  0  0  0  0  0  0  0  0  0  0
   12.4708   -0.8000    0.0000 C   0  0  0  0  0  0  0  0  0  0  0  0
   13.8564    0.0000    0.0000 O   0  0  0  0  0  0  0  0  0  0  0  0
   -2.7713    0.0000    0.0000 C   0  0  0  0  0  0  0  0  0  0  0  0
  1  2  1  0  0  0  0
  2  3  1  0  0  0  0
  2 23  2  0  0  0  0
  3  4  2  0  0  0  0
  4  5  1  0  0  0  0
  5  6  1  0  0  0  0
  5 10  2  0  0  0  0
  6  7  2  0  0  0  0
  6 23  1  0  0  0  0
  7  8  1  0  0  0  0
  8  9  2  0  0  0  0
  9 10  1  0  0  0  0
 10 11  1  0  0  0  0
 11 12  1  0  0  0  0
 12 13  1  1  0  0  0
 12 14  1  0  0  0  0
 14 15  1  0  0  0  0
 15 16  1  0  0  0  0
 16 17  1  0  0  0  0
 17 18  1  1  0  0  0
 17 20  1  0  0  0  0
 18 19  1  0  0  0  0
 20 21  1  0  0  0  0
 21 22  1  0  0  0  0
M  END
> <Acceptable>
true

> <IC50>
N/A

$$$$

Generated by Molecular Materials Informatics

 26 28  0  0  0  0  0  0  0  0999 V2000
   -6.3028    1.1113    0.0000 Cl  0  0  0  0  0  0  0  0  0  0  0  0
   13.8564    4.8000    0.0000 F   0  0  0  0  0  0  0  0  0  0  0  0
   -0.5472   -1.5035    0.0000 O   0  0  0  0  0  0  0  0  0  0  0  0
    8.3138    0.0000    0.0000 O   0  0  0  0  0  0  0  0  0  0  0  0
    2.7713    1.6000    0.0000 N   0  0  0  0  0  0  0  0  0  0  0  0
    0.0000    0.0000    0.0000 C   0  0  0  0  0  0  0  0  0  0  0  0
    1.3856   -0.8000    0.0000 C   0  0  0  0  0  0  0  0  0  0  0  0
    0.0000    1.6000    0.0000 C   0  0  0  0  0  0  0  0  0  0  0  0
    2.7713    0.0000    0.0000 C   0  0  0  0  0  0  0  0  0  0  0  0
    1.3856    2.4000    0.0000 C   0  0  0  0  0  0  0  0  0  0  0  0
    4.1569    2.4000    0.0000 C   0  0  0  0  0  0  0  0  0  0  0  0
   -1.5757    0.2778    0.0000 C   0  0  0  0  0  0  0  0  0  0  0  0
    5.5426    1.6000    0.0000 C   0  0  0  0  0  0  0  0  0  0  0  0
    6.9282    2.4000    0.0000 C   0  0  0  0  0  0  0  0  0  0  0  0
   -2.6042   -0.9478    0.0000 C   0  0  0  0  0  0  0  0  0  0  0  0
   -2.1229    1.7813    0.0000 C   0  0  0  0  0  0  0  0  0  0  0  0
    8.3138    1.6000    0.0000 C   0  0  0  0  0  0  0  0  0  0  0  0
   -4.1798   -0.6700    0.0000 C   0  0  0  0  0  0  0  0  0  0  0  0
   -3.6986    2.0592    0.0000 C   0  0  0  0  0  0  0  0  0  0  0  0
    9.6995    2.4000    0.0000 C   0  0  0  0  0  0  0  0  0  0  0  0
   -4.7271    0.8335    0.0000 C   0  0  0  0  0  0  0  0  0  0  0  0
    9.6995    4.0000    0.0000 C   0  0  0  0  0  0  0  0  0  0  0  0
   11.0851    1.6000    0.0000 C   0  0  0  0  0  0  0  0  0  0  0  0
   11.0851    4.8000    0.0000 C   0  0  0  0  0  0  0  0  0  0  0  0
   12.4708    2.4000    0.0000 C   0  0  0  0  0  0  0  0  0  0  0  0
   12.4708    4.0000    0.0000 C   0  0  0  0  0  0  0  0  0  0  0  0
  1 21  1  0  0  0  0
  2 26  1  0  0  0  0
  6  3  1  1  0  0  0
 17  4  1  6  0  0  0
  5  9  1  0  0  0  0
  5 10  1  0  0  0  0
  5 11  1  6  0  0  0
  6  7  1  0  0  0  0
  6  8  1  0  0  0  0
  6 12  1  0  0  0  0
  7  9  1  0  0  0  0
  8 10  1  0  0  0  0
 11 13  1  0  0  0  0
 12 15  2  0  0  0  0
 12 16  1  0  0  0  0
 13 14  1  0  0  0  0
 14 17  1  0  0  0  0
 15 18  1  0  0  0  0
 16 19  2  0  0  0  0
 17 20  1  0  0  0  0
 18 21  2  0  0  0  0
 19 21  1  0  0  0  0
 20 22  2  0  0  0  0
 20 23  1  0  0  0  0
 22 24  1  0  0  0  0
 23 25  2  0  0  0  0
 24 26  2  0  0  0  0
 25 26  1  0  0  0  0
M  END
> <Acceptable>
false

> <IC50>
2.6

$$$$

Generated by Molecular Materials Informatics

  5  4  0  0  0  0  0  0  0  0999 V2000
   -1.3856   -0.8000    0.0000 O   0  0  0  0  0  0  0  0  0  0  0  0
    0.0000    0.0000    0.0000 C   0  0  0  0  0  0  0  0  0  0  0  0
    0.0000    1.6000    0.0000 N   0  0  0  0  0  0  0  0  0  0  0  0
    1.3856   -0.8000    0.0000 N   0  0  0  0  0  0  0  0  0  0  0  0
    2.7713    0.0000    0.0000 O   0  0  0  0  0  0  0  0  0  0  0  0
  1  2  2  0  0  0  0
  2  3  1  0  0  0  0
  2  4  1  0  0  0  0
  4  5  1  0  0  0  0
M  END
> <Acceptable>
true

> <IC50>
N/A

$$$$

Generated by Molecular Materials Informatics

 21 23  0  0  0  0  0  0  0  0999 V2000
    5.3425    1.2851    0.0000 O   0  0  0  0  0  0  0  0  0  0  0  0
    5.3409   -0.3149    0.0000 C   0  0  0  0  0  0  0  0  0  0  0  0
    3.9545   -1.1135    0.0000 O   0  0  0  0  0  0  0  0  0  0  0  0
    2.5697   -0.3122    0.0000 C   0  0  0  0  0  0  0  0  0  0  0  0
    1.5449    0.9267    0.0000 C   0  0  0  0  0  0  0  0  0  0  0  0
    0.0000    0.0000    0.0000 C   0  0  0  0  0  0  0  0  0  0  0  0
   -1.3681    0.1952    0.0000 N   0  0  0  0  0  0  0  0  0  0  0  0
   -2.7650    0.9755    0.0000 C   0  0  0  0  0  0  0  0  0  0  0  0
   -0.3450   -1.0349    0.0000 C   0  0  0  0  0  0  0  0  0  0  0  0
    1.2870   -0.0927    0.0000 C   0  0  0  0  0  0  0  0  0  0  0  0
   -0.5275   -2.7354    0.0000 C   0  0  0  0  0  0  0  0  0  0  0  0
    0.1488   -1.5009    0.0000 C   0  0  0  0  0  0  0  0  0  0  0  0
    6.7258   -1.1163    0.0000 C   0  0  0  0  0  0  0  0  0  0  0  0
    6.7242   -2.7163    0.0000 C   0  0  0  0  0  0  0  0  0  0  0  0
    8.1091   -3.5176    0.0000 O   0  0  0  0  0  0  0  0  0  0  0  0
    8.1122   -0.3176    0.0000 C   0  0  0  0  0  0  0  0  0  0  0  0
    8.1138    1.2824    0.0000 C   0  0  0  0  0  0  0  0  0  0  0  0
    9.5002    2.0810    0.0000 C   0  0  0  0  0  0  0  0  0  0  0  0
   10.8851    1.2797    0.0000 C   0  0  0  0  0  0  0  0  0  0  0  0
   10.8835   -0.3203    0.0000 C   0  0  0  0  0  0  0  0  0  0  0  0
    9.4971   -1.1190    0.0000 C   0  0  0  0  0  0  0  0  0  0  0  0
  1  2  2  0  0  0  0
  2  3  1  0  0  0  0
  2 13  1  0  0  0  0
  4  3  1  1  0  0  0
  4  5  1  0  0  0  0
  4 10  1  0  0  0  0
  5  6  1  0  0  0  0
  6  7  1  0  0  0  0
  6 12  1  6  0  0  0
  7  8  1  6  0  0  0
  7  9  1  0  0  0  0
  9 10  1  0  0  0  0
  9 11  1  1  0  0  0
 11 12  1  0  0  0  0
 13 14  1  1  0  0  0
 13 16  1  0  0  0  0
 14 15  1  0  0  0  0
 16 17  1  0  0  0  0
 16 21  2  0  0  0  0
 17 18  2  0  0  0  0
 18 19  1  0  0  0  0
 19 20  2  0  0  0  0
 20 21  1  0  0  0  0
M  END
> <Acceptable>
false

> <IC50>
N/A

$$$$

Generated by Molecular Materials Informatics

 15 15  0  0  0  0  0  0  0  0999 V2000
   -2.7713   -1.6000    0.0000 O   0  0  0  0  0  0  0  0  0  0  0  0
   -2.7713    0.0000    0.0000 C   0  0  0  0  0  0  0  0  0  0  0  0
   -4.1569    0.8000    0.0000 O   0  0  0  0  0  0  0  0  0  0  0  0
   -1.3856    0.8000    0.0000 C   0  0  0  0  0  0  0  0  0  0  0  0
   -1.3856    2.4000    0.0000 C   0  0  0  0  0  0  0  0  0  0  0  0
    0.0000    0.0000    0.0000 C   0  0  0  0  0  0  0  0  0  0  0  0
    0.0000   -1.6000    0.0000 C   0  0  0  0  0  0  0  0  0  0  0  0
    1.3856   -2.4000    0.0000 C   0  0  0  0  0  0  0  0  0  0  0  0
    2.7713   -1.6000    0.0000 C   0  0  0  0  0  0  0  0  0  0  0  0
    2.7713    0.0000    0.0000 C   0  0  0  0  0  0  0  0  0  0  0  0
    1.3856    0.8000    0.0000 C   0  0  0  0  0  0  0  0  0  0  0  0
    4.1569   -2.4000    0.0000 C   0  0  0  0  0  0  0  0  0  0  0  0
    5.5426   -1.6000    0.0000 C   0  0  0  0  0  0  0  0  0  0  0  0
    5.5426    0.0000    0.0000 C   0  0  0  0  0  0  0  0  0  0  0  0
    6.9282   -2.4000    0.0000 C   0  0  0  0  0  0  0  0  0  0  0  0
  1  2  2  0  0  0  0
  2  3  1  0  0  0  0
  2  4  1  0  0  0  0
  4  5  1  6  0  0  0
  4  6  1  0  0  0  0
  6  7  1  0  0  0  0
  6 11  2  0  0  0  0
  7  8  2  0  0  0  0
  8  9  1  0  0  0  0
  9 10  2  0  0  0  0
  9 12  1  0  0  0  0
 10 11  1  0  0  0  0
 12 13  1  0  0  0  0
 13 14  1  0  0  0  0
 13 15  1  0  0  0  0
M  END
> <Acceptable>
true

> <IC50>
N/A

$$$$

Generated by Molecular Materials Informatics

 26 26  0  0  0  0  0  0  0  0999 V2000
    5.5426    1.6000    0.0000 S   0  0  0  0  0  0  0  0  0  0  0  0
    4.7426    0.2144    0.0000 O   0  0  0  0  0  0  0  0  0  0  0  0
    6.3426    2.9856    0.0000 O   0  0  0  0  0  0  0  0  0  0  0  0
    4.1569    2.4000    0.0000 N   0  0  0  0  0  0  0  0  0  0  0  0
    2.7713    1.6000    0.0000 C   0  0  0  0  0  0  0  0  0  0  0  0
    1.3856    2.4000    0.0000 C   0  0  0  0  0  0  0  0  0  0  0  0
    0.0000    1.6000    0.0000 C   0  0  0  0  0  0  0  0  0  0  0  0
    0.0000    0.0000    0.0000 C   0  0  0  0  0  0  0  0  0  0  0  0
    1.3856   -0.8000    0.0000 C   0  0  0  0  0  0  0  0  0  0  0  0
    2.7713    0.0000    0.0000 C   0  0  0  0  0  0  0  0  0  0  0  0
   -1.3856   -0.8000    0.0000 C   0  0  0  0  0  0  0  0  0  0  0  0
   -1.3856   -2.4000    0.0000 O   0  0  0  0  0  0  0  0  0  0  0  0
   -2.7713    0.0000    0.0000 C   0  0  0  0  0  0  0  0  0  0  0  0
   -4.1569   -0.8000    0.0000 C   0  0  0  0  0  0  0  0  0  0  0  0
   -5.5426    0.0000    0.0000 C   0  0  0  0  0  0  0  0  0  0  0  0
   -6.9282   -0.8000    0.0000 N   0  0  0  0  0  0  0  0  0  0  0  0
   -6.9282   -2.4000    0.0000 C   0  0  0  0  0  0  0  0  0  0  0  0
   -8.3138   -3.2000    0.0000 C   0  0  0  0  0  0  0  0  0  0  0  0
   -8.3138    0.0000    0.0000 C   0  0  0  0  0  0  0  0  0  0  0  0
   -9.6995   -0.8000    0.0000 C   0  0  0  0  0  0  0  0  0  0  0  0
  -11.0851    0.0000    0.0000 C   0  0  0  0  0  0  0  0  0  0  0  0
  -12.4708   -0.8000    0.0000 C   0  0  0  0  0  0  0  0  0  0  0  0
  -13.8564    0.0000    0.0000 C   0  0  0  0  0  0  0  0  0  0  0  0
  -15.2420   -0.8000    0.0000 C   0  0  0  0  0  0  0  0  0  0  0  0
  -16.6277    0.0000    0.0000 C   0  0  0  0  0  0  0  0  0  0  0  0
    6.9282    0.8000    0.0000 C   0  0  0  0  0  0  0  0  0  0  0  0
  1  2  2  0  0  0  0
  1  3  2  0  0  0  0
  1  4  1  0  0  0  0
  1 26  1  0  0  0  0
  4  5  1  0  0  0  0
  5  6  1  0  0  0  0
  5 10  2  0  0  0  0
  6  7  2  0  0  0  0
  7  8  1  0  0  0  0
  8  9  2  0  0  0  0
  8 11  1  0  0  0  0
  9 10  1  0  0  0  0
 11 12  1  6  0  0  0
 11 13  1  0  0  0  0
 13 14  1  0  0  0  0
 14 15  1  0  0  0  0
 15 16  1  0  0  0  0
 16 17  1  6  0  0  0
 16 19  1  0  0  0  0
 17 18  1  0  0  0  0
 19 20  1  0  0  0  0
 20 21  1  0  0  0  0
 21 22  1  0  0  0  0
 22 23  1  0  0  0  0
 23 24  1  0  0  0  0
 24 25  1  0  0  0  0
M  END
> <Acceptable>
false

> <IC50>
0.028

$$$$

Generated by Molecular Materials Informatics

 20 21  0  0  0  0  0  0  0  0999 V2000
    2.7713    0.0000    0.0000 O   0  0  0  0  0  0  0  0  0  0  0  0
    5.5426    1.6000    0.0000 O   0  0  0  0  0  0  0  0  0  0  0  0
    8.3138    0.0000    0.0000 N   0  0  0  0  0  0  0  0  0  0  0  0
    0.0000    0.0000    0.0000 C   0  0  0  0  0  0  0  0  0  0  0  0
   -0.3327    1.5650    0.0000 C   0  0  0  0  0  0  0  0  0  0  0  0
   -1.3856   -0.8000    0.0000 C   0  0  0  0  0  0  0  0  0  0  0  0
   -1.9239    1.7323    0.0000 C   0  0  0  0  0  0  0  0  0  0  0  0
   -2.5747    0.2706    0.0000 C   0  0  0  0  0  0  0  0  0  0  0  0
    6.9282   -0.8000    0.0000 C   0  0  0  0  0  0  0  0  0  0  0  0
    1.3856   -0.8000    0.0000 C   0  0  0  0  0  0  0  0  0  0  0  0
    5.5426    0.0000    0.0000 C   0  0  0  0  0  0  0  0  0  0  0  0
   -1.3856   -2.4000    0.0000 C   0  0  0  0  0  0  0  0  0  0  0  0
    4.1569   -0.8000    0.0000 C   0  0  0  0  0  0  0  0  0  0  0  0
    9.6995   -0.8000    0.0000 C   0  0  0  0  0  0  0  0  0  0  0  0
    1.3856   -2.4000    0.0000 C   0  0  0  0  0  0  0  0  0  0  0  0
    0.0000   -3.2000    0.0000 C   0  0  0  0  0  0  0  0  0  0  0  0
    6.9282   -2.4000    0.0000 C   0  0  0  0  0  0  0  0  0  0  0  0
   -2.7713   -3.2000    0.0000 C   0  0  0  0  0  0  0  0  0  0  0  0
    9.6995   -2.4000    0.0000 C   0  0  0  0  0  0  0  0  0  0  0  0
   11.0851    0.0000    0.0000 C   0  0  0  0  0  0  0  0  0  0  0  0
  1 10  1  0  0  0  0
  1 13  1  0  0  0  0
 11  2  1  6  0  0  0
  3  9  1  0  0  0  0
  3 14  1  0  0  0  0
  4  5  1  0  0  0  0
  4  6  2  0  0  0  0
  4 10  1  0  0  0  0
  5  7  1  0  0  0  0
  6  8  1  0  0  0  0
  6 12  1  0  0  0  0
  7  8  1  0  0  0  0
  9 11  1  0  0  0  0
  9 17  1  1  0  0  0
 10 15  2  0  0  0  0
 11 13  1  0  0  0  0
 12 16  2  0  0  0  0
 12 18  1  0  0  0  0
 14 19  1  0  0  0  0
 14 20  1  0  0  0  0
 15 16  1  0  0  0  0
M  END
> <Acceptable>
false

> <IC50>
9.2

$$$$

Generated by Molecular Materials Informatics

 24 26  0  0  0  0  0  0  0  0999 V2000
   -4.1569    2.4000    0.0000 C   0  0  0  0  0  0  0  0  0  0  0  0
   -5.5426    3.2000    0.0000 C   0  0  0  0  0  0  0  0  0  0  0  0
   -2.7713    3.2000    0.0000 C   0  0  0  0  0  0  0  0  0  0  0  0
   -4.1569    0.8000    0.0000 C   0  0  0  0  0  0  0  0  0  0  0  0
   -6.9282    2.4000    0.0000 C   0  0  0  0  0  0  0  0  0  0  0  0
   -1.3856    2.4000    0.0000 C   0  0  0  0  0  0  0  0  0  0  0  0
   -2.7713    0.0000    0.0000 C   0  0  0  0  0  0  0  0  0  0  0  0
   -6.9282    0.8000    0.0000 C   0  0  0  0  0  0  0  0  0  0  0  0
   -8.3138    3.2000    0.0000 C   0  0  0  0  0  0  0  0  0  0  0  0
   -1.3856    0.8000    0.0000 N   0  0  0  0  0  0  0  0  0  0  0  0
   -8.3138    0.0000    0.0000 C   0  0  0  0  0  0  0  0  0  0  0  0
   -9.6995    2.4000    0.0000 C   0  0  0  0  0  0  0  0  0  0  0  0
    0.0000    0.0000    0.0000 C   0  0  0  0  0  0  0  0  0  0  0  0
   -9.6995    0.8000    0.0000 C   0  0  0  0  0  0  0  0  0  0  0  0
    1.3856    0.8000    0.0000 C   0  0  0  0  0  0  0  0  0  0  0  0
    0.0000   -1.6000    0.0000 C   0  0  0  0  0  0  0  0  0  0  0  0
    2.7713    0.0000    0.0000 C   0  0  0  0  0  0  0  0  0  0  0  0
    1.3856    2.4000    0.0000 O   0  0  0  0  0  0  0  0  0  0  0  0
    4.1569    0.8000    0.0000 C   0  0  0  0  0  0  0  0  0  0  0  0
    2.7713   -1.6000    0.0000 C   0  0  0  0  0  0  0  0  0  0  0  0
    5.5426    0.0000    0.0000 C   0  0  0  0  0  0  0  0  0  0  0  0
    4.1569   -2.4000    0.0000 C   0  0  0  0  0  0  0  0  0  0  0  0
    5.5426   -1.6000    0.0000 C   0  0  0  0  0  0  0  0  0  0  0  0
    6.9282   -2.4000    0.0000 O   0  0  0  0  0  0  0  0  0  0  0  0
  1  2  1  6  0  0  0
  1  3  1  0  0  0  0
  1  4  1  0  0  0  0
  2  5  1  0  0  0  0
  3  6  1  0  0  0  0
  4  7  1  0  0  0  0
  5  8  2  0  0  0  0
  5  9  1  0  0  0  0
  6 10  1  0  0  0  0
 10  7  1  1  0  0  0
  8 11  1  0  0  0  0
  9 12  2  0  0  0  0
 10 13  1  0  0  0  0
 11 14  2  0  0  0  0
 12 14  1  0  0  0  0
 13 15  1  0  0  0  0
 13 16  1  6  0  0  0
 15 17  1  0  0  0  0
 15 18  1  1  0  0  0
 17 19  2  0  0  0  0
 17 20  1  0  0  0  0
 19 21  1  0  0  0  0
 20 22  2  0  0  0  0
 21 23  2  0  0  0  0
 22 23  1  0  0  0  0
 23 24  1  0  0  0  0
M  END
> <Acceptable>
false

> <IC50>
0.1

$$$$

Generated by Molecular Materials Informatics

 21 23  0  0  0  0  0  0  0  0999 V2000
    0.0000    0.0000    0.0000 N   0  0  0  0  0  0  0  0  0  0  0  0
    0.5845   -1.4894    0.0000 C   0  0  0  0  0  0  0  0  0  0  0  0
   -1.5289    0.4716    0.0000 C   0  0  0  0  0  0  0  0  0  0  0  0
    1.0883    1.1729    0.0000 C   0  0  0  0  0  0  0  0  0  0  0  0
   -0.2155   -2.8750    0.0000 C   0  0  0  0  0  0  0  0  0  0  0  0
    2.1845   -1.4894    0.0000 C   0  0  0  0  0  0  0  0  0  0  0  0
   -2.8509   -0.4297    0.0000 C   0  0  0  0  0  0  0  0  0  0  0  0
   -1.6485    2.0671    0.0000 C   0  0  0  0  0  0  0  0  0  0  0  0
    2.6482    0.8169    0.0000 C   0  0  0  0  0  0  0  0  0  0  0  0
   -1.7976   -3.1135    0.0000 C   0  0  0  0  0  0  0  0  0  0  0  0
    0.5845   -4.2607    0.0000 C   0  0  0  0  0  0  0  0  0  0  0  0
    2.9845   -2.8750    0.0000 C   0  0  0  0  0  0  0  0  0  0  0  0
   -2.9705   -2.0252    0.0000 C   0  0  0  0  0  0  0  0  0  0  0  0
   -4.2924    0.2645    0.0000 C   0  0  0  0  0  0  0  0  0  0  0  0
   -3.0900    2.7613    0.0000 C   0  0  0  0  0  0  0  0  0  0  0  0
    3.7364    1.9897    0.0000 C   0  0  0  0  0  0  0  0  0  0  0  0
    2.1845   -4.2607    0.0000 C   0  0  0  0  0  0  0  0  0  0  0  0
   -4.4120    1.8600    0.0000 C   0  0  0  0  0  0  0  0  0  0  0  0
    5.2963    1.6337    0.0000 N   0  0  0  0  0  0  0  0  0  0  0  0
    5.7679    0.1048    0.0000 C   0  0  0  0  0  0  0  0  0  0  0  0
    6.3846    2.8066    0.0000 C   0  0  0  0  0  0  0  0  0  0  0  0
  1  2  1  0  0  0  0
  1  3  1  0  0  0  0
  1  4  1  0  0  0  0
  2  5  2  0  0  0  0
  2  6  1  0  0  0  0
  3  7  2  0  0  0  0
  3  8  1  0  0  0  0
  4  9  1  0  0  0  0
  5 10  1  0  0  0  0
  5 11  1  0  0  0  0
  6 12  2  0  0  0  0
  7 13  1  0  0  0  0
  7 14  1  0  0  0  0
  8 15  2  0  0  0  0
  9 16  1  0  0  0  0
 10 13  1  0  0  0  0
 11 17  2  0  0  0  0
 12 17  1  0  0  0  0
 14 18  2  0  0  0  0
 15 18  1  0  0  0  0
 16 19  1  0  0  0  0
 19 20  1  0  0  0  0
 19 21  1  0  0  0  0
M  END
> <Acceptable>
false

> <IC50>
3.4

$$$$

Generated by Molecular Materials Informatics

 24 26  0  0  0  0  0  0  0  0999 V2000
   -8.8958   -0.4743    0.0000 Cl  0  0  0  0  0  0  0  0  0  0  0  0
   -7.3308   -0.1416    0.0000 C   0  0  0  0  0  0  0  0  0  0  0  0
   -6.2601   -1.3306    0.0000 C   0  0  0  0  0  0  0  0  0  0  0  0
   -4.6951   -0.9980    0.0000 C   0  0  0  0  0  0  0  0  0  0  0  0
   -4.2007    0.5237    0.0000 C   0  0  0  0  0  0  0  0  0  0  0  0
   -5.2713    1.7127    0.0000 C   0  0  0  0  0  0  0  0  0  0  0  0
   -6.8363    1.3801    0.0000 C   0  0  0  0  0  0  0  0  0  0  0  0
   -7.9069    2.5691    0.0000 S   0  0  0  0  0  0  0  0  0  0  0  0
   -9.0960    1.4985    0.0000 O   0  0  0  0  0  0  0  0  0  0  0  0
   -6.7179    3.6397    0.0000 O   0  0  0  0  0  0  0  0  0  0  0  0
   -8.9775    3.7581    0.0000 N   0  0  0  0  0  0  0  0  0  0  0  0
   -2.6356    0.8564    0.0000 C   0  0  0  0  0  0  0  0  0  0  0  0
   -2.1412    2.3781    0.0000 O   0  0  0  0  0  0  0  0  0  0  0  0
   -1.5650   -0.3327    0.0000 N   0  0  0  0  0  0  0  0  0  0  0  0
    0.0000    0.0000    0.0000 N   0  0  0  0  0  0  0  0  0  0  0  0
    1.1890   -1.0706    0.0000 C   0  0  0  0  0  0  0  0  0  0  0  0
    1.1890   -2.6706    0.0000 C   0  0  0  0  0  0  0  0  0  0  0  0
    2.5747   -3.4706    0.0000 C   0  0  0  0  0  0  0  0  0  0  0  0
    3.9603   -2.6706    0.0000 C   0  0  0  0  0  0  0  0  0  0  0  0
    3.9603   -1.0706    0.0000 C   0  0  0  0  0  0  0  0  0  0  0  0
    2.5747   -0.2706    0.0000 C   0  0  0  0  0  0  0  0  0  0  0  0
    2.2420    1.2944    0.0000 C   0  0  0  0  0  0  0  0  0  0  0  0
    0.6508    1.4617    0.0000 C   0  0  0  0  0  0  0  0  0  0  0  0
   -0.1492    2.8473    0.0000 C   0  0  0  0  0  0  0  0  0  0  0  0
  1  2  1  0  0  0  0
  2  3  1  0  0  0  0
  2  7  2  0  0  0  0
  3  4  2  0  0  0  0
  4  5  1  0  0  0  0
  5  6  2  0  0  0  0
  5 12  1  0  0  0  0
  6  7  1  0  0  0  0
  7  8  1  0  0  0  0
  8  9  2  0  0  0  0
  8 10  2  0  0  0  0
  8 11  1  0  0  0  0
 12 13  2  0  0  0  0
 12 14  1  0  0  0  0
 14 15  1  0  0  0  0
 15 16  1  0  0  0  0
 15 23  1  0  0  0  0
 16 17  1  0  0  0  0
 16 21  2  0  0  0  0
 17 18  2  0  0  0  0
 18 19  1  0  0  0  0
 19 20  2  0  0  0  0
 20 21  1  0  0  0  0
 21 22  1  0  0  0  0
 22 23  1  0  0  0  0
 23 24  1  1  0  0  0
M  END
> <Acceptable>
true

> <IC50>
N/A

$$$$

Generated by Molecular Materials Informatics

 45 49  0  0  0  0  0  0  0  0999 V2000
   -6.2778   -3.7880    0.0000 O   0  0  0  0  0  0  0  0  0  0  0  0
   -7.7995   -3.2936    0.0000 C   0  0  0  0  0  0  0  0  0  0  0  0
   -8.9885   -4.3642    0.0000 N   0  0  0  0  0  0  0  0  0  0  0  0
  -10.5102   -3.8698    0.0000 C   0  0  0  0  0  0  0  0  0  0  0  0
   -9.3212   -2.7992    0.0000 C   0  0  0  0  0  0  0  0  0  0  0  0
  -10.8429   -2.3047    0.0000 C   0  0  0  0  0  0  0  0  0  0  0  0
  -12.0319   -3.3753    0.0000 C   0  0  0  0  0  0  0  0  0  0  0  0
   -8.1322   -1.7286    0.0000 C   0  0  0  0  0  0  0  0  0  0  0  0
   -6.9431   -0.6579    0.0000 N   0  0  0  0  0  0  0  0  0  0  0  0
   -7.2758    0.9071    0.0000 C   0  0  0  0  0  0  0  0  0  0  0  0
   -8.7975    1.4015    0.0000 C   0  0  0  0  0  0  0  0  0  0  0  0
   -9.9865    0.3309    0.0000 N   0  0  0  0  0  0  0  0  0  0  0  0
   -9.6539   -1.2341    0.0000 C   0  0  0  0  0  0  0  0  0  0  0  0
  -11.5082    0.8253    0.0000 C   0  0  0  0  0  0  0  0  0  0  0  0
  -11.8409    2.3904    0.0000 C   0  0  0  0  0  0  0  0  0  0  0  0
  -10.6518    3.4610    0.0000 C   0  0  0  0  0  0  0  0  0  0  0  0
  -10.9845    5.0260    0.0000 N   0  0  0  0  0  0  0  0  0  0  0  0
  -12.5062    5.5204    0.0000 C   0  0  0  0  0  0  0  0  0  0  0  0
  -13.6952    4.4498    0.0000 C   0  0  0  0  0  0  0  0  0  0  0  0
  -13.3626    2.8848    0.0000 C   0  0  0  0  0  0  0  0  0  0  0  0
   -5.4214   -1.1524    0.0000 C   0  0  0  0  0  0  0  0  0  0  0  0
   -4.2324   -0.0818    0.0000 C   0  0  0  0  0  0  0  0  0  0  0  0
   -2.7107   -0.5762    0.0000 O   0  0  0  0  0  0  0  0  0  0  0  0
   -4.5651    1.4833    0.0000 C   0  0  0  0  0  0  0  0  0  0  0  0
   -3.3760    2.5539    0.0000 C   0  0  0  0  0  0  0  0  0  0  0  0
   -3.7087    4.1189    0.0000 C   0  0  0  0  0  0  0  0  0  0  0  0
   -2.5197    5.1895    0.0000 C   0  0  0  0  0  0  0  0  0  0  0  0
   -2.8523    6.7546    0.0000 C   0  0  0  0  0  0  0  0  0  0  0  0
   -1.6633    7.8252    0.0000 C   0  0  0  0  0  0  0  0  0  0  0  0
   -0.1416    7.3308    0.0000 C   0  0  0  0  0  0  0  0  0  0  0  0
    0.1911    5.7657    0.0000 C   0  0  0  0  0  0  0  0  0  0  0  0
   -0.9980    4.6951    0.0000 C   0  0  0  0  0  0  0  0  0  0  0  0
   -1.8544    2.0595    0.0000 C   0  0  0  0  0  0  0  0  0  0  0  0
   -0.6653    3.1301    0.0000 O   0  0  0  0  0  0  0  0  0  0  0  0
   -1.5217    0.4944    0.0000 N   0  0  0  0  0  0  0  0  0  0  0  0
    0.0000    0.0000    0.0000 C   0  0  0  0  0  0  0  0  0  0  0  0
    0.4944   -1.5217    0.0000 C   0  0  0  0  0  0  0  0  0  0  0  0
   -0.3056   -2.9073    0.0000 C   0  0  0  0  0  0  0  0  0  0  0  0
    0.4944   -4.2930    0.0000 C   0  0  0  0  0  0  0  0  0  0  0  0
    2.0944   -4.2930    0.0000 C   0  0  0  0  0  0  0  0  0  0  0  0
    2.8944   -2.9073    0.0000 C   0  0  0  0  0  0  0  0  0  0  0  0
    2.0944   -1.5217    0.0000 C   0  0  0  0  0  0  0  0  0  0  0  0
    2.5889    0.0000    0.0000 C   0  0  0  0  0  0  0  0  0  0  0  0
    1.2944    0.9405    0.0000 C   0  0  0  0  0  0  0  0  0  0  0  0
    1.2944    2.5405    0.0000 O   0  0  0  0  0  0  0  0  0  0  0  0
  1  2  2  0  0  0  0
  2  3  1  0  0  0  0
  8  2  1  6  0  0  0
  3  4  1  0  0  0  0
  4  5  1  0  0  0  0
  4  6  1  0  0  0  0
  4  7  1  0  0  0  0
  8  9  1  0  0  0  0
  8 13  1  0  0  0  0
  9 10  1  0  0  0  0
  9 21  1  6  0  0  0
 10 11  1  0  0  0  0
 11 12  1  0  0  0  0
 12 13  1  0  0  0  0
 12 14  1  6  0  0  0
 14 15  1  0  0  0  0
 15 16  1  0  0  0  0
 15 20  2  0  0  0  0
 16 17  2  0  0  0  0
 17 18  1  0  0  0  0
 18 19  2  0  0  0  0
 19 20  1  0  0  0  0
 21 22  1  0  0  0  0
 22 23  1  6  0  0  0
 22 24  1  0  0  0  0
 24 25  1  0  0  0  0
 25 26  1  0  0  0  0
 25 33  1  1  0  0  0
 26 27  1  0  0  0  0
 27 28  1  0  0  0  0
 27 32  2  0  0  0  0
 28 29  2  0  0  0  0
 29 30  1  0  0  0  0
 30 31  2  0  0  0  0
 31 32  1  0  0  0  0
 33 34  2  0  0  0  0
 33 35  1  0  0  0  0
 36 35  1  6  0  0  0
 36 37  1  0  0  0  0
 36 44  1  0  0  0  0
 37 38  1  0  0  0  0
 37 42  2  0  0  0  0
 38 39  2  0  0  0  0
 39 40  1  0  0  0  0
 40 41  2  0  0  0  0
 41 42  1  0  0  0  0
 42 43  1  0  0  0  0
 43 44  1  0  0  0  0
 44 45  1  6  0  0  0
M  END
> <Acceptable>
true

> <IC50>
N/A

$$$$

Generated by Molecular Materials Informatics

 25 27  0  0  0  0  0  0  0  0999 V2000
   -7.2758    0.9071    0.0000 Cl  0  0  0  0  0  0  0  0  0  0  0  0
   -5.7541    0.4127    0.0000 C   0  0  0  0  0  0  0  0  0  0  0  0
   -5.4214   -1.1524    0.0000 C   0  0  0  0  0  0  0  0  0  0  0  0
   -3.8998   -1.6468    0.0000 C   0  0  0  0  0  0  0  0  0  0  0  0
   -2.7107   -0.5762    0.0000 C   0  0  0  0  0  0  0  0  0  0  0  0
   -3.0434    0.9889    0.0000 C   0  0  0  0  0  0  0  0  0  0  0  0
   -4.5651    1.4833    0.0000 C   0  0  0  0  0  0  0  0  0  0  0  0
   -1.1890   -1.0706    0.0000 C   0  0  0  0  0  0  0  0  0  0  0  0
   -0.8564   -2.6356    0.0000 O   0  0  0  0  0  0  0  0  0  0  0  0
    0.0000    0.0000    0.0000 N   0  0  0  0  0  0  0  0  0  0  0  0
    1.5650   -0.3327    0.0000 C   0  0  0  0  0  0  0  0  0  0  0  0
    2.3650   -1.7183    0.0000 C   0  0  0  0  0  0  0  0  0  0  0  0
    3.9650   -1.7183    0.0000 C   0  0  0  0  0  0  0  0  0  0  0  0
    4.7650   -0.3327    0.0000 C   0  0  0  0  0  0  0  0  0  0  0  0
    6.3650   -0.3327    0.0000 O   0  0  0  0  0  0  0  0  0  0  0  0
    7.1650   -1.7183    0.0000 C   0  0  0  0  0  0  0  0  0  0  0  0
    3.9650    1.0530    0.0000 C   0  0  0  0  0  0  0  0  0  0  0  0
    2.3650    1.0530    0.0000 C   0  0  0  0  0  0  0  0  0  0  0  0
    1.2944    2.2420    0.0000 C   0  0  0  0  0  0  0  0  0  0  0  0
    1.6271    3.8071    0.0000 C   0  0  0  0  0  0  0  0  0  0  0  0
    0.4381    4.8777    0.0000 C   0  0  0  0  0  0  0  0  0  0  0  0
   -1.0836    4.3832    0.0000 O   0  0  0  0  0  0  0  0  0  0  0  0
    0.7707    6.4427    0.0000 O   0  0  0  0  0  0  0  0  0  0  0  0
   -0.1672    1.5912    0.0000 C   0  0  0  0  0  0  0  0  0  0  0  0
   -1.5529    2.3912    0.0000 C   0  0  0  0  0  0  0  0  0  0  0  0
  1  2  1  0  0  0  0
  2  3  1  0  0  0  0
  2  7  2  0  0  0  0
  3  4  2  0  0  0  0
  4  5  1  0  0  0  0
  5  6  2  0  0  0  0
  5  8  1  0  0  0  0
  6  7  1  0  0  0  0
  8  9  2  0  0  0  0
  8 10  1  0  0  0  0
 10 11  1  0  0  0  0
 10 24  1  0  0  0  0
 11 12  1  0  0  0  0
 11 18  2  0  0  0  0
 12 13  2  0  0  0  0
 13 14  1  0  0  0  0
 14 15  1  0  0  0  0
 14 17  2  0  0  0  0
 15 16  1  0  0  0  0
 17 18  1  0  0  0  0
 18 19  1  0  0  0  0
 19 20  1  0  0  0  0
 19 24  2  0  0  0  0
 20 21  1  0  0  0  0
 21 22  2  0  0  0  0
 21 23  1  0  0  0  0
 24 25  1  0  0  0  0
M  END
> <Acceptable>
true

> <IC50>
300

$$$$

Generated by Molecular Materials Informatics

 13 14  0  0  0  0  0  0  0  0999 V2000
   -4.0000   -1.3856    0.0000 I   0  0  0  0  0  0  0  0  0  0  0  0
   -2.4000   -1.3856    0.0000 C   0  0  0  0  0  0  0  0  0  0  0  0
   -1.6000   -2.7713    0.0000 C   0  0  0  0  0  0  0  0  0  0  0  0
    0.0000   -2.7713    0.0000 C   0  0  0  0  0  0  0  0  0  0  0  0
    0.8000   -4.1569    0.0000 I   0  0  0  0  0  0  0  0  0  0  0  0
    0.8000   -1.3856    0.0000 C   0  0  0  0  0  0  0  0  0  0  0  0
    2.4000   -1.3856    0.0000 C   0  0  0  0  0  0  0  0  0  0  0  0
    3.2000    0.0000    0.0000 C   0  0  0  0  0  0  0  0  0  0  0  0
    2.4000    1.3856    0.0000 C   0  0  0  0  0  0  0  0  0  0  0  0
    0.8000    1.3856    0.0000 N   0  0  0  0  0  0  0  0  0  0  0  0
    0.0000    0.0000    0.0000 C   0  0  0  0  0  0  0  0  0  0  0  0
   -1.6000    0.0000    0.0000 C   0  0  0  0  0  0  0  0  0  0  0  0
   -2.4000    1.3856    0.0000 O   0  0  0  0  0  0  0  0  0  0  0  0
  1  2  1  0  0  0  0
  2  3  1  0  0  0  0
  2 12  2  0  0  0  0
  3  4  2  0  0  0  0
  4  5  1  0  0  0  0
  4  6  1  0  0  0  0
  6  7  1  0  0  0  0
  6 11  2  0  0  0  0
  7  8  2  0  0  0  0
  8  9  1  0  0  0  0
  9 10  2  0  0  0  0
 10 11  1  0  0  0  0
 11 12  1  0  0  0  0
 12 13  1  0  0  0  0
M  END
> <Acceptable>
true

> <IC50>
N/A

$$$$

Generated by Molecular Materials Informatics

 21 23  0  0  0  0  0  0  0  0999 V2000
   -2.4000   -1.3856    0.0000 O   0  0  0  0  0  0  0  0  0  0  0  0
   -1.6000    0.0000    0.0000 C   0  0  0  0  0  0  0  0  0  0  0  0
   -2.4000    1.3856    0.0000 N   0  0  0  0  0  0  0  0  0  0  0  0
   -4.0000    1.3856    0.0000 C   0  0  0  0  0  0  0  0  0  0  0  0
   -4.8000    0.0000    0.0000 C   0  0  0  0  0  0  0  0  0  0  0  0
   -4.0000   -1.3856    0.0000 C   0  0  0  0  0  0  0  0  0  0  0  0
   -6.4000    0.0000    0.0000 C   0  0  0  0  0  0  0  0  0  0  0  0
   -7.2000    1.3856    0.0000 C   0  0  0  0  0  0  0  0  0  0  0  0
   -6.4000    2.7713    0.0000 C   0  0  0  0  0  0  0  0  0  0  0  0
   -4.8000    2.7713    0.0000 C   0  0  0  0  0  0  0  0  0  0  0  0
   -4.0000    4.1569    0.0000 C   0  0  0  0  0  0  0  0  0  0  0  0
    0.0000    0.0000    0.0000 C   0  0  0  0  0  0  0  0  0  0  0  0
    0.8000    1.3856    0.0000 N   0  0  0  0  0  0  0  0  0  0  0  0
    2.4000    1.3856    0.0000 C   0  0  0  0  0  0  0  0  0  0  0  0
    3.2000    0.0000    0.0000 C   0  0  0  0  0  0  0  0  0  0  0  0
    2.4000   -1.3856    0.0000 C   0  0  0  0  0  0  0  0  0  0  0  0
    0.8000   -1.3856    0.0000 C   0  0  0  0  0  0  0  0  0  0  0  0
    0.0000    2.7713    0.0000 C   0  0  0  0  0  0  0  0  0  0  0  0
    0.8000    4.1569    0.0000 C   0  0  0  0  0  0  0  0  0  0  0  0
    0.8000    5.7569    0.0000 C   0  0  0  0  0  0  0  0  0  0  0  0
    2.1856    4.9569    0.0000 C   0  0  0  0  0  0  0  0  0  0  0  0
  1  2  2  0  0  0  0
  2  3  1  0  0  0  0
 12  2  1  6  0  0  0
  3  4  1  0  0  0  0
  4  5  1  0  0  0  0
  4 10  2  0  0  0  0
  5  6  1  0  0  0  0
  5  7  2  0  0  0  0
  7  8  1  0  0  0  0
  8  9  2  0  0  0  0
  9 10  1  0  0  0  0
 10 11  1  0  0  0  0
 12 13  1  0  0  0  0
 12 17  1  0  0  0  0
 13 14  1  0  0  0  0
 13 18  1  1  0  0  0
 14 15  1  0  0  0  0
 15 16  1  0  0  0  0
 16 17  1  0  0  0  0
 18 19  1  0  0  0  0
 19 20  1  0  0  0  0
 19 21  1  0  0  0  0
 20 21  1  0  0  0  0
M  END
> <Acceptable>
false

> <IC50>
20

$$$$

Generated by Molecular Materials Informatics

 32 36  0  0  0  0  0  0  0  0999 V2000
   -0.4460    2.8161    0.0000 O   0  0  0  0  0  0  0  0  0  0  0  0
    0.4944    1.5217    0.0000 C   0  0  0  0  0  0  0  0  0  0  0  0
    2.0944    1.5217    0.0000 N   0  0  0  0  0  0  0  0  0  0  0  0
    3.0349    2.8161    0.0000 C   0  0  0  0  0  0  0  0  0  0  0  0
    4.6261    2.6489    0.0000 C   0  0  0  0  0  0  0  0  0  0  0  0
    5.5666    3.9433    0.0000 C   0  0  0  0  0  0  0  0  0  0  0  0
    7.1578    3.7761    0.0000 C   0  0  0  0  0  0  0  0  0  0  0  0
    7.8086    2.3144    0.0000 C   0  0  0  0  0  0  0  0  0  0  0  0
    6.8681    1.0200    0.0000 C   0  0  0  0  0  0  0  0  0  0  0  0
    5.2769    1.1872    0.0000 C   0  0  0  0  0  0  0  0  0  0  0  0
    9.3998    2.1471    0.0000 C   0  0  0  0  0  0  0  0  0  0  0  0
   10.3403    3.4416    0.0000 C   0  0  0  0  0  0  0  0  0  0  0  0
   11.9315    3.2743    0.0000 C   0  0  0  0  0  0  0  0  0  0  0  0
   12.5823    1.8126    0.0000 C   0  0  0  0  0  0  0  0  0  0  0  0
   11.6418    0.5182    0.0000 C   0  0  0  0  0  0  0  0  0  0  0  0
   10.0506    0.6855    0.0000 C   0  0  0  0  0  0  0  0  0  0  0  0
    9.1101   -0.6090    0.0000 C   0  0  0  0  0  0  0  0  0  0  0  0
    9.6046   -2.1307    0.0000 N   0  0  0  0  0  0  0  0  0  0  0  0
    8.3101   -3.0711    0.0000 N   0  0  0  0  0  0  0  0  0  0  0  0
    7.0157   -2.1307    0.0000 N   0  0  0  0  0  0  0  0  0  0  0  0
    7.5101   -0.6090    0.0000 N   0  0  0  0  0  0  0  0  0  0  0  0
    2.5889    0.0000    0.0000 C   0  0  0  0  0  0  0  0  0  0  0  0
    1.2944   -0.9405    0.0000 N   0  0  0  0  0  0  0  0  0  0  0  0
    0.0000    0.0000    0.0000 C   0  0  0  0  0  0  0  0  0  0  0  0
   -0.4944   -1.5217    0.0000 C   0  0  0  0  0  0  0  0  0  0  0  0
   -2.0944   -1.5217    0.0000 C   0  0  0  0  0  0  0  0  0  0  0  0
   -2.5889    0.0000    0.0000 C   0  0  0  0  0  0  0  0  0  0  0  0
   -1.2944    0.9405    0.0000 C   0  0  0  0  0  0  0  0  0  0  0  0
    4.1105   -0.4944    0.0000 C   0  0  0  0  0  0  0  0  0  0  0  0
    4.4432   -2.0595    0.0000 C   0  0  0  0  0  0  0  0  0  0  0  0
    5.9649   -2.5539    0.0000 C   0  0  0  0  0  0  0  0  0  0  0  0
    6.2976   -4.1189    0.0000 C   0  0  0  0  0  0  0  0  0  0  0  0
  1  2  2  0  0  0  0
  2  3  1  0  0  0  0
  2 24  1  0  0  0  0
  3  4  1  0  0  0  0
  3 22  1  0  0  0  0
  4  5  1  0  0  0  0
  5  6  1  0  0  0  0
  5 10  2  0  0  0  0
  6  7  2  0  0  0  0
  7  8  1  0  0  0  0
  8  9  2  0  0  0  0
  8 11  1  0  0  0  0
  9 10  1  0  0  0  0
 11 12  1  0  0  0  0
 11 16  2  0  0  0  0
 12 13  2  0  0  0  0
 13 14  1  0  0  0  0
 14 15  2  0  0  0  0
 15 16  1  0  0  0  0
 16 17  1  0  0  0  0
 17 18  1  0  0  0  0
 17 21  2  0  0  0  0
 18 19  2  0  0  0  0
 19 20  1  0  0  0  0
 20 21  1  0  0  0  0
 22 23  2  0  0  0  0
 22 29  1  0  0  0  0
 23 24  1  0  0  0  0
 24 25  1  0  0  0  0
 24 28  1  0  0  0  0
 25 26  1  0  0  0  0
 26 27  1  0  0  0  0
 27 28  1  0  0  0  0
 29 30  1  0  0  0  0
 30 31  1  0  0  0  0
 31 32  1  0  0  0  0
M  END
> <Acceptable>
true

> <IC50>
193

$$$$

Generated by Molecular Materials Informatics

 16 17  0  0  0  0  0  0  0  0999 V2000
   -2.7713    3.2000    0.0000 O   0  0  0  0  0  0  0  0  0  0  0  0
   -1.3856    2.4000    0.0000 C   0  0  0  0  0  0  0  0  0  0  0  0
   -1.3856    0.8000    0.0000 N   0  0  0  0  0  0  0  0  0  0  0  0
   -2.7713    0.0000    0.0000 C   0  0  0  0  0  0  0  0  0  0  0  0
   -4.1569    0.8000    0.0000 C   0  0  0  0  0  0  0  0  0  0  0  0
   -4.1569    2.4000    0.0000 C   0  0  0  0  0  0  0  0  0  0  0  0
   -5.5426    0.0000    0.0000 C   0  0  0  0  0  0  0  0  0  0  0  0
    0.0000    0.0000    0.0000 C   0  0  0  0  0  0  0  0  0  0  0  0
    0.3327   -1.5650    0.0000 N   0  0  0  0  0  0  0  0  0  0  0  0
    1.9239   -1.7323    0.0000 C   0  0  0  0  0  0  0  0  0  0  0  0
    2.5747   -0.2706    0.0000 N   0  0  0  0  0  0  0  0  0  0  0  0
    1.3856    0.8000    0.0000 C   0  0  0  0  0  0  0  0  0  0  0  0
    1.3856    2.4000    0.0000 C   0  0  0  0  0  0  0  0  0  0  0  0
    2.7713    3.2000    0.0000 O   0  0  0  0  0  0  0  0  0  0  0  0
    0.0000    3.2000    0.0000 N   0  0  0  0  0  0  0  0  0  0  0  0
    0.0000    4.8000    0.0000 C   0  0  0  0  0  0  0  0  0  0  0  0
  1  2  2  0  0  0  0
  2  3  1  0  0  0  0
  2 15  1  0  0  0  0
  3  4  1  0  0  0  0
  3  8  1  0  0  0  0
  4  5  1  0  0  0  0
  5  6  1  0  0  0  0
  5  7  1  0  0  0  0
  8  9  1  0  0  0  0
  8 12  2  0  0  0  0
  9 10  2  0  0  0  0
 10 11  1  0  0  0  0
 11 12  1  0  0  0  0
 12 13  1  0  0  0  0
 13 14  2  0  0  0  0
 13 15  1  0  0  0  0
 15 16  1  0  0  0  0
M  END
> <Acceptable>
false

> <IC50>
10

$$$$

Generated by Molecular Materials Informatics

 10  9  0  0  0  0  0  0  0  0999 V2000
   -1.3856    0.8000    0.0000 N   0  0  0  0  0  0  0  0  0  0  0  0
   -2.7713    0.0000    0.0000 C   0  0  0  0  0  0  0  0  0  0  0  0
    0.0000    0.0000    0.0000 C   0  0  0  0  0  0  0  0  0  0  0  0
    0.0000   -1.6000    0.0000 C   0  0  0  0  0  0  0  0  0  0  0  0
    1.3856    0.8000    0.0000 C   0  0  0  0  0  0  0  0  0  0  0  0
    2.7713    0.0000    0.0000 C   0  0  0  0  0  0  0  0  0  0  0  0
    4.1569    0.8000    0.0000 C   0  0  0  0  0  0  0  0  0  0  0  0
    5.5426    0.0000    0.0000 C   0  0  0  0  0  0  0  0  0  0  0  0
    5.5426   -1.6000    0.0000 C   0  0  0  0  0  0  0  0  0  0  0  0
    6.9282    0.8000    0.0000 C   0  0  0  0  0  0  0  0  0  0  0  0
  1  2  1  0  0  0  0
  1  3  1  0  0  0  0
  3  4  1  1  0  0  0
  3  5  1  0  0  0  0
  5  6  1  0  0  0  0
  6  7  1  0  0  0  0
  7  8  2  0  0  0  0
  8  9  1  0  0  0  0
  8 10  1  0  0  0  0
M  END
> <Acceptable>
true

> <IC50>
N/A

$$$$

Generated by Molecular Materials Informatics

 10 10  0  0  0  0  0  0  0  0999 V2000
   -2.4000    1.3856    0.0000 O   0  0  0  0  0  0  0  0  0  0  0  0
   -1.6000    0.0000    0.0000 C   0  0  0  0  0  0  0  0  0  0  0  0
   -2.4000   -1.3856    0.0000 N   0  0  0  0  0  0  0  0  0  0  0  0
   -4.0000   -1.3856    0.0000 N   0  0  0  0  0  0  0  0  0  0  0  0
    0.0000    0.0000    0.0000 C   0  0  0  0  0  0  0  0  0  0  0  0
    0.8000   -1.3856    0.0000 C   0  0  0  0  0  0  0  0  0  0  0  0
    2.4000   -1.3856    0.0000 C   0  0  0  0  0  0  0  0  0  0  0  0
    3.2000    0.0000    0.0000 N   0  0  0  0  0  0  0  0  0  0  0  0
    2.4000    1.3856    0.0000 C   0  0  0  0  0  0  0  0  0  0  0  0
    0.8000    1.3856    0.0000 C   0  0  0  0  0  0  0  0  0  0  0  0
  1  2  2  0  0  0  0
  2  3  1  0  0  0  0
  2  5  1  0  0  0  0
  3  4  1  0  0  0  0
  5  6  1  0  0  0  0
  5 10  2  0  0  0  0
  6  7  2  0  0  0  0
  7  8  1  0  0  0  0
  8  9  2  0  0  0  0
  9 10  1  0  0  0  0
M  END
> <Acceptable>
true

> <IC50>
N/A

$$$$

Generated by Molecular Materials Informatics

 15 15  0  0  0  0  0  0  0  0999 V2000
   -4.1569    2.4000    0.0000 O   0  0  0  0  0  0  0  0  0  0  0  0
   -2.7713    1.6000    0.0000 C   0  0  0  0  0  0  0  0  0  0  0  0
   -1.3856    2.4000    0.0000 C   0  0  0  0  0  0  0  0  0  0  0  0
    0.0000    1.6000    0.0000 C   0  0  0  0  0  0  0  0  0  0  0  0
    0.0000    0.0000    0.0000 C   0  0  0  0  0  0  0  0  0  0  0  0
   -1.3856   -0.8000    0.0000 C   0  0  0  0  0  0  0  0  0  0  0  0
   -2.7713    0.0000    0.0000 C   0  0  0  0  0  0  0  0  0  0  0  0
   -4.1569   -0.8000    0.0000 O   0  0  0  0  0  0  0  0  0  0  0  0
    1.3856   -0.8000    0.0000 C   0  0  0  0  0  0  0  0  0  0  0  0
    1.3856   -2.4000    0.0000 O   0  0  0  0  0  0  0  0  0  0  0  0
    2.7713    0.0000    0.0000 C   0  0  0  0  0  0  0  0  0  0  0  0
    4.1569   -0.8000    0.0000 N   0  0  0  0  0  0  0  0  0  0  0  0
    5.5426    0.0000    0.0000 C   0  0  0  0  0  0  0  0  0  0  0  0
    5.5426    1.6000    0.0000 C   0  0  0  0  0  0  0  0  0  0  0  0
    6.9282   -0.8000    0.0000 C   0  0  0  0  0  0  0  0  0  0  0  0
  1  2  1  0  0  0  0
  2  3  1  0  0  0  0
  2  7  2  0  0  0  0
  3  4  2  0  0  0  0
  4  5  1  0  0  0  0
  5  6  2  0  0  0  0
  5  9  1  0  0  0  0
  6  7  1  0  0  0  0
  7  8  1  0  0  0  0
  9 10  1  1  0  0  0
  9 11  1  0  0  0  0
 11 12  1  0  0  0  0
 12 13  1  0  0  0  0
 13 14  1  0  0  0  0
 13 15  1  0  0  0  0
M  END
> <Acceptable>
false

> <IC50>
N/A

$$$$

Generated by Molecular Materials Informatics

 13 14  0  0  0  0  0  0  0  0999 V2000
   -4.4450   -1.7960    0.0000 O   0  0  0  0  0  0  0  0  0  0  0  0
   -4.2778   -0.2047    0.0000 N   0  3  0  0  0  0  0  0  0  0  0  0
   -5.5722    0.7357    0.0000 O   0  5  0  0  0  0  0  0  0  0  0  0
   -2.8161    0.4460    0.0000 O   0  0  0  0  0  0  0  0  0  0  0  0
   -1.5217   -0.4944    0.0000 C   0  0  0  0  0  0  0  0  0  0  0  0
   -1.5217   -2.0944    0.0000 C   0  0  0  0  0  0  0  0  0  0  0  0
    0.0000   -2.5889    0.0000 O   0  0  0  0  0  0  0  0  0  0  0  0
    0.9405   -1.2944    0.0000 C   0  0  0  0  0  0  0  0  0  0  0  0
    2.4621   -0.8000    0.0000 C   0  0  0  0  0  0  0  0  0  0  0  0
    3.7566   -1.7405    0.0000 O   0  0  0  0  0  0  0  0  0  0  0  0
    2.4621    0.8000    0.0000 C   0  0  0  0  0  0  0  0  0  0  0  0
    0.9405    1.2944    0.0000 O   0  0  0  0  0  0  0  0  0  0  0  0
    0.0000    0.0000    0.0000 C   0  0  0  0  0  0  0  0  0  0  0  0
  1  2  2  0  0  0  0
  2  3  1  0  0  0  0
  2  4  1  0  0  0  0
  5  4  1  1  0  0  0
  5  6  1  0  0  0  0
  5 13  1  0  0  0  0
  6  7  1  0  0  0  0
  8  7  1  1  0  0  0
  8  9  1  0  0  0  0
  8 13  1  0  0  0  0
  9 10  1  6  0  0  0
  9 11  1  0  0  0  0
 11 12  1  0  0  0  0
 13 12  1  1  0  0  0
M  CHG  2   2   1   3  -1
M  END
> <Acceptable>
true

> <IC50>
N/A

$$$$

Generated by Molecular Materials Informatics

 22 22  0  0  0  0  0  0  0  0999 V2000
   -9.6995    0.8000    0.0000 O   0  0  0  0  0  0  0  0  0  0  0  0
   -9.6995    2.4000    0.0000 C   0  0  0  0  0  0  0  0  0  0  0  0
  -11.0851    3.2000    0.0000 O   0  0  0  0  0  0  0  0  0  0  0  0
   -8.3138    3.2000    0.0000 C   0  0  0  0  0  0  0  0  0  0  0  0
   -6.9282    2.4000    0.0000 C   0  0  0  0  0  0  0  0  0  0  0  0
   -6.9282    0.8000    0.0000 C   0  0  0  0  0  0  0  0  0  0  0  0
   -5.5426    3.2000    0.0000 C   0  0  0  0  0  0  0  0  0  0  0  0
   -4.1569    2.4000    0.0000 C   0  0  0  0  0  0  0  0  0  0  0  0
   -2.7713    3.2000    0.0000 C   0  0  0  0  0  0  0  0  0  0  0  0
   -1.3856    2.4000    0.0000 C   0  0  0  0  0  0  0  0  0  0  0  0
   -1.3856    0.8000    0.0000 C   0  0  0  0  0  0  0  0  0  0  0  0
    0.0000    3.2000    0.0000 C   0  0  0  0  0  0  0  0  0  0  0  0
    1.3856    2.4000    0.0000 C   0  0  0  0  0  0  0  0  0  0  0  0
    1.3856    0.8000    0.0000 C   0  0  0  0  0  0  0  0  0  0  0  0
    2.7713    0.0000    0.0000 C   0  0  0  0  0  0  0  0  0  0  0  0
    4.1569    0.8000    0.0000 C   0  0  0  0  0  0  0  0  0  0  0  0
    2.7713   -1.6000    0.0000 C   0  0  0  0  0  0  0  0  0  0  0  0
    1.3856   -2.4000    0.0000 C   0  0  0  0  0  0  0  0  0  0  0  0
    0.0000   -1.6000    0.0000 C   0  0  0  0  0  0  0  0  0  0  0  0
    0.0000    0.0000    0.0000 C   0  0  0  0  0  0  0  0  0  0  0  0
   -1.5757   -0.2778    0.0000 C   0  0  0  0  0  0  0  0  0  0  0  0
   -0.5472    1.5035    0.0000 C   0  0  0  0  0  0  0  0  0  0  0  0
  1  2  2  0  0  0  0
  2  3  1  0  0  0  0
  2  4  1  0  0  0  0
  4  5  2  0  0  0  0
  5  6  1  0  0  0  0
  5  7  1  0  0  0  0
  7  8  2  0  0  0  0
  8  9  1  0  0  0  0
  9 10  2  0  0  0  0
 10 11  1  0  0  0  0
 10 12  1  0  0  0  0
 12 13  2  0  0  0  0
 13 14  1  0  0  0  0
 14 15  2  0  0  0  0
 14 20  1  0  0  0  0
 15 16  1  0  0  0  0
 15 17  1  0  0  0  0
 17 18  1  0  0  0  0
 18 19  1  0  0  0  0
 19 20  1  0  0  0  0
 20 21  1  0  0  0  0
 20 22  1  0  0  0  0
M  END
> <Acceptable>
true

> <IC50>
N/A

$$$$

Generated by Molecular Materials Informatics

 27 29  0  0  0  0  0  0  0  0999 V2000
   -4.0513    0.0000    0.0000 O   0  0  0  0  0  0  0  0  0  0  0  0
   -2.8257    1.0285    0.0000 C   0  0  0  0  0  0  0  0  0  0  0  0
   -3.6257    2.4141    0.0000 O   0  0  0  0  0  0  0  0  0  0  0  0
   -5.2257    2.4141    0.0000 C   0  0  0  0  0  0  0  0  0  0  0  0
   -1.2257    1.0285    0.0000 C   0  0  0  0  0  0  0  0  0  0  0  0
   -0.9478    2.6042    0.0000 C   0  0  0  0  0  0  0  0  0  0  0  0
    0.5557    3.1514    0.0000 N   0  0  0  0  0  0  0  0  0  0  0  0
    1.7813    2.1229    0.0000 C   0  0  0  0  0  0  0  0  0  0  0  0
    3.2849    2.6702    0.0000 C   0  0  0  0  0  0  0  0  0  0  0  0
    1.5035    0.5472    0.0000 C   0  0  0  0  0  0  0  0  0  0  0  0
    2.7292   -0.4812    0.0000 C   0  0  0  0  0  0  0  0  0  0  0  0
    2.4513   -2.0569    0.0000 O   0  0  0  0  0  0  0  0  0  0  0  0
    4.2327    0.0660    0.0000 O   0  0  0  0  0  0  0  0  0  0  0  0
    5.4584   -0.9625    0.0000 C   0  0  0  0  0  0  0  0  0  0  0  0
    5.1805   -2.5381    0.0000 C   0  0  0  0  0  0  0  0  0  0  0  0
    6.9619   -0.4152    0.0000 C   0  0  0  0  0  0  0  0  0  0  0  0
    0.0000    0.0000    0.0000 C   0  0  0  0  0  0  0  0  0  0  0  0
   -0.2778   -1.5757    0.0000 C   0  0  0  0  0  0  0  0  0  0  0  0
    1.1078   -2.3757    0.0000 C   0  0  0  0  0  0  0  0  0  0  0  0
    1.1078   -3.9757    0.0000 C   0  0  0  0  0  0  0  0  0  0  0  0
   -0.2778   -4.7757    0.0000 C   0  0  0  0  0  0  0  0  0  0  0  0
   -1.6635   -3.9757    0.0000 C   0  0  0  0  0  0  0  0  0  0  0  0
   -3.1852   -4.4701    0.0000 N   0  0  0  0  0  0  0  0  0  0  0  0
   -4.1256   -3.1757    0.0000 O   0  0  0  0  0  0  0  0  0  0  0  0
   -3.1852   -1.8813    0.0000 N   0  0  0  0  0  0  0  0  0  0  0  0
   -1.6635   -2.3757    0.0000 C   0  0  0  0  0  0  0  0  0  0  0  0
   -2.1735    3.6326    0.0000 C   0  0  0  0  0  0  0  0  0  0  0  0
  1  2  2  0  0  0  0
  2  3  1  0  0  0  0
  2  5  1  0  0  0  0
  3  4  1  0  0  0  0
  5  6  2  0  0  0  0
  5 17  1  0  0  0  0
  6  7  1  0  0  0  0
  6 27  1  0  0  0  0
  7  8  1  0  0  0  0
  8  9  1  0  0  0  0
  8 10  2  0  0  0  0
 10 11  1  0  0  0  0
 10 17  1  0  0  0  0
 11 12  2  0  0  0  0
 11 13  1  0  0  0  0
 13 14  1  0  0  0  0
 14 15  1  0  0  0  0
 14 16  1  0  0  0  0
 17 18  1  6  0  0  0
 18 19  2  0  0  0  0
 18 26  1  0  0  0  0
 19 20  1  0  0  0  0
 20 21  2  0  0  0  0
 21 22  1  0  0  0  0
 22 23  2  0  0  0  0
 22 26  1  0  0  0  0
 23 24  1  0  0  0  0
 24 25  1  0  0  0  0
 25 26  2  0  0  0  0
M  END
> <Acceptable>
false

> <IC50>
50.1187

$$$$

Generated by Molecular Materials Informatics

 31 35  0  0  0  0  0  0  0  0999 V2000
   -1.3856   -2.4000    0.0000 C   0  0  0  0  0  0  0  0  0  0  0  0
   -2.7713   -1.6000    0.0000 C   0  0  0  0  0  0  0  0  0  0  0  0
   -2.7713    0.0000    0.0000 C   0  0  0  0  0  0  0  0  0  0  0  0
   -1.3856    0.8000    0.0000 C   0  0  0  0  0  0  0  0  0  0  0  0
    0.0000    0.0000    0.0000 C   0  0  0  0  0  0  0  0  0  0  0  0
    0.0000   -1.6000    0.0000 C   0  0  0  0  0  0  0  0  0  0  0  0
    1.3856   -2.4000    0.0000 O   0  0  0  0  0  0  0  0  0  0  0  0
    2.7713   -1.6000    0.0000 C   0  0  0  0  0  0  0  0  0  0  0  0
    2.7713    0.0000    0.0000 C   0  0  0  0  0  0  0  0  0  0  0  0
    1.3856    0.8000    0.0000 C   0  0  0  0  0  0  0  0  0  0  0  0
    1.3856    2.4000    0.0000 O   0  0  0  0  0  0  0  0  0  0  0  0
   -4.1569   -2.4000    0.0000 O   0  0  0  0  0  0  0  0  0  0  0  0
    4.1569   -2.4000    0.0000 C   0  0  0  0  0  0  0  0  0  0  0  0
    5.5426   -1.6000    0.0000 N   0  0  0  0  0  0  0  0  0  0  0  0
    6.9282   -2.4000    0.0000 C   0  0  0  0  0  0  0  0  0  0  0  0
    4.1569   -4.0000    0.0000 O   0  0  0  0  0  0  0  0  0  0  0  0
    8.3138   -1.6000    0.0000 C   0  0  0  0  0  0  0  0  0  0  0  0
    9.6995   -2.4000    0.0000 C   0  0  0  0  0  0  0  0  0  0  0  0
    9.6995   -4.0000    0.0000 N   0  0  0  0  0  0  0  0  0  0  0  0
    8.3138   -4.8000    0.0000 C   0  0  0  0  0  0  0  0  0  0  0  0
    6.9282   -4.0000    0.0000 C   0  0  0  0  0  0  0  0  0  0  0  0
   11.0851   -4.8000    0.0000 C   0  0  0  0  0  0  0  0  0  0  0  0
   12.4708   -4.0000    0.0000 C   0  0  0  0  0  0  0  0  0  0  0  0
   12.4708   -2.4000    0.0000 C   0  0  0  0  0  0  0  0  0  0  0  0
   13.8564   -1.6000    0.0000 C   0  0  0  0  0  0  0  0  0  0  0  0
   15.2420   -2.4000    0.0000 C   0  0  0  0  0  0  0  0  0  0  0  0
   15.2420   -4.0000    0.0000 C   0  0  0  0  0  0  0  0  0  0  0  0
   13.8564   -4.8000    0.0000 C   0  0  0  0  0  0  0  0  0  0  0  0
   16.7637   -4.4944    0.0000 O   0  0  0  0  0  0  0  0  0  0  0  0
   17.7042   -3.2000    0.0000 C   0  0  0  0  0  0  0  0  0  0  0  0
   16.7637   -1.9056    0.0000 O   0  0  0  0  0  0  0  0  0  0  0  0
  1  2  1  0  0  0  0
  1  6  2  0  0  0  0
  2  3  2  0  0  0  0
  2 12  1  0  0  0  0
  3  4  1  0  0  0  0
  4  5  2  0  0  0  0
  5  6  1  0  0  0  0
  5 10  1  0  0  0  0
  6  7  1  0  0  0  0
  7  8  1  0  0  0  0
  8  9  2  0  0  0  0
  8 13  1  0  0  0  0
  9 10  1  0  0  0  0
 10 11  2  0  0  0  0
 13 14  1  0  0  0  0
 13 16  2  0  0  0  0
 15 14  1  1  0  0  0
 15 17  1  0  0  0  0
 15 21  1  0  0  0  0
 17 18  1  0  0  0  0
 18 19  1  0  0  0  0
 19 20  1  0  0  0  0
 19 22  1  6  0  0  0
 20 21  1  0  0  0  0
 22 23  1  0  0  0  0
 23 24  1  0  0  0  0
 23 28  2  0  0  0  0
 24 25  2  0  0  0  0
 25 26  1  0  0  0  0
 26 27  2  0  0  0  0
 26 31  1  0  0  0  0
 27 28  1  0  0  0  0
 27 29  1  0  0  0  0
 29 30  1  0  0  0  0
 30 31  1  0  0  0  0
M  END
> <Acceptable>
true

> <IC50>
63.7

$$$$

Generated by Molecular Materials Informatics

 34 38  0  0  0  0  0  0  0  0999 V2000
    1.3856   -0.8000    0.0000 C   0  0  0  0  0  0  0  0  0  0  0  0
    2.7713    0.0000    0.0000 C   0  0  0  0  0  0  0  0  0  0  0  0
    2.7713    1.6000    0.0000 C   0  0  0  0  0  0  0  0  0  0  0  0
    1.3856    2.4000    0.0000 C   0  0  0  0  0  0  0  0  0  0  0  0
    0.0000    1.6000    0.0000 C   0  0  0  0  0  0  0  0  0  0  0  0
    0.0000    0.0000    0.0000 C   0  0  0  0  0  0  0  0  0  0  0  0
   -1.3856   -0.8000    0.0000 O   0  0  0  0  0  0  0  0  0  0  0  0
   -2.7713    0.0000    0.0000 C   0  0  0  0  0  0  0  0  0  0  0  0
   -2.7713    1.6000    0.0000 C   0  0  0  0  0  0  0  0  0  0  0  0
   -1.3856    2.4000    0.0000 C   0  0  0  0  0  0  0  0  0  0  0  0
   -1.3856    4.0000    0.0000 O   0  0  0  0  0  0  0  0  0  0  0  0
   -4.1569   -0.8000    0.0000 C   0  0  0  0  0  0  0  0  0  0  0  0
   -5.5426    0.0000    0.0000 N   0  0  0  0  0  0  0  0  0  0  0  0
   -6.9282   -0.8000    0.0000 C   0  0  0  0  0  0  0  0  0  0  0  0
   -4.1569   -2.4000    0.0000 O   0  0  0  0  0  0  0  0  0  0  0  0
   -8.3138    0.0000    0.0000 C   0  0  0  0  0  0  0  0  0  0  0  0
   -9.6995   -0.8000    0.0000 C   0  0  0  0  0  0  0  0  0  0  0  0
   -9.6995   -2.4000    0.0000 N   0  0  0  0  0  0  0  0  0  0  0  0
   -8.3138   -3.2000    0.0000 C   0  0  0  0  0  0  0  0  0  0  0  0
   -6.9282   -2.4000    0.0000 C   0  0  0  0  0  0  0  0  0  0  0  0
  -11.0851   -3.2000    0.0000 C   0  0  0  0  0  0  0  0  0  0  0  0
  -12.4708   -2.4000    0.0000 C   0  0  0  0  0  0  0  0  0  0  0  0
  -12.4708   -0.8000    0.0000 C   0  0  0  0  0  0  0  0  0  0  0  0
  -13.8564    0.0000    0.0000 C   0  0  0  0  0  0  0  0  0  0  0  0
  -15.2420   -0.8000    0.0000 C   0  0  0  0  0  0  0  0  0  0  0  0
  -15.2420   -2.4000    0.0000 C   0  0  0  0  0  0  0  0  0  0  0  0
  -13.8564   -3.2000    0.0000 C   0  0  0  0  0  0  0  0  0  0  0  0
  -16.7637   -2.8944    0.0000 O   0  0  0  0  0  0  0  0  0  0  0  0
  -17.7042   -1.6000    0.0000 C   0  0  0  0  0  0  0  0  0  0  0  0
  -16.7637   -0.3056    0.0000 O   0  0  0  0  0  0  0  0  0  0  0  0
    4.1569   -0.8000    0.0000 O   0  0  0  0  0  0  0  0  0  0  0  0
    5.5426    0.0000    0.0000 C   0  0  0  0  0  0  0  0  0  0  0  0
    5.5426    1.6000    0.0000 F   0  0  0  0  0  0  0  0  0  0  0  0
    6.9282   -0.8000    0.0000 F   0  0  0  0  0  0  0  0  0  0  0  0
  1  2  1  0  0  0  0
  1  6  2  0  0  0  0
  2  3  2  0  0  0  0
  2 31  1  0  0  0  0
  3  4  1  0  0  0  0
  4  5  2  0  0  0  0
  5  6  1  0  0  0  0
  5 10  1  0  0  0  0
  6  7  1  0  0  0  0
  7  8  1  0  0  0  0
  8  9  2  0  0  0  0
  8 12  1  0  0  0  0
  9 10  1  0  0  0  0
 10 11  2  0  0  0  0
 12 13  1  0  0  0  0
 12 15  2  0  0  0  0
 14 13  1  6  0  0  0
 14 16  1  0  0  0  0
 14 20  1  0  0  0  0
 16 17  1  0  0  0  0
 17 18  1  0  0  0  0
 18 19  1  0  0  0  0
 18 21  1  1  0  0  0
 19 20  1  0  0  0  0
 21 22  1  0  0  0  0
 22 23  1  0  0  0  0
 22 27  2  0  0  0  0
 23 24  2  0  0  0  0
 24 25  1  0  0  0  0
 25 26  2  0  0  0  0
 25 30  1  0  0  0  0
 26 27  1  0  0  0  0
 26 28  1  0  0  0  0
 28 29  1  0  0  0  0
 29 30  1  0  0  0  0
 31 32  1  0  0  0  0
 32 33  1  0  0  0  0
 32 34  1  0  0  0  0
M  END
> <Acceptable>
false

> <IC50>
3.6

$$$$

Generated by Molecular Materials Informatics

 32 36  0  0  0  0  0  0  0  0999 V2000
    1.3856   -2.4000    0.0000 C   0  0  0  0  0  0  0  0  0  0  0  0
    2.7713   -1.6000    0.0000 C   0  0  0  0  0  0  0  0  0  0  0  0
    2.7713    0.0000    0.0000 C   0  0  0  0  0  0  0  0  0  0  0  0
    1.3856    0.8000    0.0000 C   0  0  0  0  0  0  0  0  0  0  0  0
    0.0000    0.0000    0.0000 C   0  0  0  0  0  0  0  0  0  0  0  0
    0.0000   -1.6000    0.0000 C   0  0  0  0  0  0  0  0  0  0  0  0
   -1.3856   -2.4000    0.0000 O   0  0  0  0  0  0  0  0  0  0  0  0
   -2.7713   -1.6000    0.0000 C   0  0  0  0  0  0  0  0  0  0  0  0
   -2.7713    0.0000    0.0000 C   0  0  0  0  0  0  0  0  0  0  0  0
   -1.3856    0.8000    0.0000 C   0  0  0  0  0  0  0  0  0  0  0  0
   -1.3856    2.4000    0.0000 O   0  0  0  0  0  0  0  0  0  0  0  0
   -4.1569   -2.4000    0.0000 C   0  0  0  0  0  0  0  0  0  0  0  0
   -5.5426   -1.6000    0.0000 N   0  0  0  0  0  0  0  0  0  0  0  0
   -6.9282   -2.4000    0.0000 C   0  0  0  0  0  0  0  0  0  0  0  0
   -4.1569   -4.0000    0.0000 O   0  0  0  0  0  0  0  0  0  0  0  0
   -8.3138   -1.6000    0.0000 C   0  0  0  0  0  0  0  0  0  0  0  0
   -9.6995   -2.4000    0.0000 C   0  0  0  0  0  0  0  0  0  0  0  0
   -9.6995   -4.0000    0.0000 N   0  0  0  0  0  0  0  0  0  0  0  0
   -8.3138   -4.8000    0.0000 C   0  0  0  0  0  0  0  0  0  0  0  0
   -6.9282   -4.0000    0.0000 C   0  0  0  0  0  0  0  0  0  0  0  0
  -11.0851   -4.8000    0.0000 C   0  0  0  0  0  0  0  0  0  0  0  0
  -12.4708   -4.0000    0.0000 C   0  0  0  0  0  0  0  0  0  0  0  0
  -12.4708   -2.4000    0.0000 C   0  0  0  0  0  0  0  0  0  0  0  0
  -13.8564   -1.6000    0.0000 C   0  0  0  0  0  0  0  0  0  0  0  0
  -15.2420   -2.4000    0.0000 C   0  0  0  0  0  0  0  0  0  0  0  0
  -15.2420   -4.0000    0.0000 C   0  0  0  0  0  0  0  0  0  0  0  0
  -13.8564   -4.8000    0.0000 C   0  0  0  0  0  0  0  0  0  0  0  0
  -16.7637   -4.4944    0.0000 O   0  0  0  0  0  0  0  0  0  0  0  0
  -17.7042   -3.2000    0.0000 C   0  0  0  0  0  0  0  0  0  0  0  0
  -16.7637   -1.9056    0.0000 O   0  0  0  0  0  0  0  0  0  0  0  0
    4.1569   -2.4000    0.0000 C   0  0  0  0  0  0  0  0  0  0  0  0
    5.5426   -1.6000    0.0000 C   0  0  0  0  0  0  0  0  0  0  0  0
  1  2  1  0  0  0  0
  1  6  2  0  0  0  0
  2  3  2  0  0  0  0
  2 31  1  0  0  0  0
  3  4  1  0  0  0  0
  4  5  2  0  0  0  0
  5  6  1  0  0  0  0
  5 10  1  0  0  0  0
  6  7  1  0  0  0  0
  7  8  1  0  0  0  0
  8  9  2  0  0  0  0
  8 12  1  0  0  0  0
  9 10  1  0  0  0  0
 10 11  2  0  0  0  0
 12 13  1  0  0  0  0
 12 15  2  0  0  0  0
 14 13  1  6  0  0  0
 14 16  1  0  0  0  0
 14 20  1  0  0  0  0
 16 17  1  0  0  0  0
 17 18  1  0  0  0  0
 18 19  1  0  0  0  0
 18 21  1  1  0  0  0
 19 20  1  0  0  0  0
 21 22  1  0  0  0  0
 22 23  1  0  0  0  0
 22 27  2  0  0  0  0
 23 24  2  0  0  0  0
 24 25  1  0  0  0  0
 25 26  2  0  0  0  0
 25 30  1  0  0  0  0
 26 27  1  0  0  0  0
 26 28  1  0  0  0  0
 28 29  1  0  0  0  0
 29 30  1  0  0  0  0
 31 32  1  0  0  0  0
M  END
> <Acceptable>
false

> <IC50>
7.4

$$$$

Generated by Molecular Materials Informatics

 32 36  0  0  0  0  0  0  0  0999 V2000
   -1.3856   -2.4000    0.0000 C   0  0  0  0  0  0  0  0  0  0  0  0
   -2.7713   -1.6000    0.0000 C   0  0  0  0  0  0  0  0  0  0  0  0
   -2.7713    0.0000    0.0000 C   0  0  0  0  0  0  0  0  0  0  0  0
   -1.3856    0.8000    0.0000 C   0  0  0  0  0  0  0  0  0  0  0  0
    0.0000    0.0000    0.0000 C   0  0  0  0  0  0  0  0  0  0  0  0
    0.0000   -1.6000    0.0000 C   0  0  0  0  0  0  0  0  0  0  0  0
    1.3856   -2.4000    0.0000 O   0  0  0  0  0  0  0  0  0  0  0  0
    2.7713   -1.6000    0.0000 C   0  0  0  0  0  0  0  0  0  0  0  0
    2.7713    0.0000    0.0000 C   0  0  0  0  0  0  0  0  0  0  0  0
    1.3856    0.8000    0.0000 C   0  0  0  0  0  0  0  0  0  0  0  0
    1.3856    2.4000    0.0000 O   0  0  0  0  0  0  0  0  0  0  0  0
   -4.1569   -2.4000    0.0000 O   0  0  0  0  0  0  0  0  0  0  0  0
   -5.5426   -1.6000    0.0000 C   0  0  0  0  0  0  0  0  0  0  0  0
    4.1569   -2.4000    0.0000 C   0  0  0  0  0  0  0  0  0  0  0  0
    5.5426   -1.6000    0.0000 N   0  0  0  0  0  0  0  0  0  0  0  0
    6.9282   -2.4000    0.0000 C   0  0  0  0  0  0  0  0  0  0  0  0
    4.1569   -4.0000    0.0000 O   0  0  0  0  0  0  0  0  0  0  0  0
    8.3138   -1.6000    0.0000 C   0  0  0  0  0  0  0  0  0  0  0  0
    9.6995   -2.4000    0.0000 C   0  0  0  0  0  0  0  0  0  0  0  0
    9.6995   -4.0000    0.0000 N   0  0  0  0  0  0  0  0  0  0  0  0
    8.3138   -4.8000    0.0000 C   0  0  0  0  0  0  0  0  0  0  0  0
    6.9282   -4.0000    0.0000 C   0  0  0  0  0  0  0  0  0  0  0  0
   11.0851   -4.8000    0.0000 C   0  0  0  0  0  0  0  0  0  0  0  0
   12.4708   -4.0000    0.0000 C   0  0  0  0  0  0  0  0  0  0  0  0
   12.4708   -2.4000    0.0000 C   0  0  0  0  0  0  0  0  0  0  0  0
   13.8564   -1.6000    0.0000 C   0  0  0  0  0  0  0  0  0  0  0  0
   15.2420   -2.4000    0.0000 C   0  0  0  0  0  0  0  0  0  0  0  0
   15.2420   -4.0000    0.0000 C   0  0  0  0  0  0  0  0  0  0  0  0
   13.8564   -4.8000    0.0000 C   0  0  0  0  0  0  0  0  0  0  0  0
   16.7637   -4.4944    0.0000 O   0  0  0  0  0  0  0  0  0  0  0  0
   17.7042   -3.2000    0.0000 C   0  0  0  0  0  0  0  0  0  0  0  0
   16.7637   -1.9056    0.0000 O   0  0  0  0  0  0  0  0  0  0  0  0
  1  2  1  0  0  0  0
  1  6  2  0  0  0  0
  2  3  2  0  0  0  0
  2 12  1  0  0  0  0
  3  4  1  0  0  0  0
  4  5  2  0  0  0  0
  5  6  1  0  0  0  0
  5 10  1  0  0  0  0
  6  7  1  0  0  0  0
  7  8  1  0  0  0  0
  8  9  2  0  0  0  0
  8 14  1  0  0  0  0
  9 10  1  0  0  0  0
 10 11  2  0  0  0  0
 12 13  1  0  0  0  0
 14 15  1  0  0  0  0
 14 17  2  0  0  0  0
 16 15  1  1  0  0  0
 16 18  1  0  0  0  0
 16 22  1  0  0  0  0
 18 19  1  0  0  0  0
 19 20  1  0  0  0  0
 20 21  1  0  0  0  0
 20 23  1  6  0  0  0
 21 22  1  0  0  0  0
 23 24  1  0  0  0  0
 24 25  1  0  0  0  0
 24 29  2  0  0  0  0
 25 26  2  0  0  0  0
 26 27  1  0  0  0  0
 27 28  2  0  0  0  0
 27 32  1  0  0  0  0
 28 29  1  0  0  0  0
 28 30  1  0  0  0  0
 30 31  1  0  0  0  0
 31 32  1  0  0  0  0
M  END
> <Acceptable>
false

> <IC50>
11.5

$$$$

Generated by Molecular Materials Informatics

 31 35  0  0  0  0  0  0  0  0999 V2000
    1.3856   -2.4000    0.0000 C   0  0  0  0  0  0  0  0  0  0  0  0
    2.7713   -1.6000    0.0000 C   0  0  0  0  0  0  0  0  0  0  0  0
    2.7713    0.0000    0.0000 C   0  0  0  0  0  0  0  0  0  0  0  0
    1.3856    0.8000    0.0000 C   0  0  0  0  0  0  0  0  0  0  0  0
    0.0000    0.0000    0.0000 C   0  0  0  0  0  0  0  0  0  0  0  0
    0.0000   -1.6000    0.0000 C   0  0  0  0  0  0  0  0  0  0  0  0
   -1.3856   -2.4000    0.0000 O   0  0  0  0  0  0  0  0  0  0  0  0
   -2.7713   -1.6000    0.0000 C   0  0  0  0  0  0  0  0  0  0  0  0
   -2.7713    0.0000    0.0000 C   0  0  0  0  0  0  0  0  0  0  0  0
   -1.3856    0.8000    0.0000 C   0  0  0  0  0  0  0  0  0  0  0  0
   -1.3856    2.4000    0.0000 O   0  0  0  0  0  0  0  0  0  0  0  0
   -4.1569   -2.4000    0.0000 C   0  0  0  0  0  0  0  0  0  0  0  0
   -5.5426   -1.6000    0.0000 N   0  0  0  0  0  0  0  0  0  0  0  0
   -6.9282   -2.4000    0.0000 C   0  0  0  0  0  0  0  0  0  0  0  0
   -4.1569   -4.0000    0.0000 O   0  0  0  0  0  0  0  0  0  0  0  0
   -8.3138   -1.6000    0.0000 C   0  0  0  0  0  0  0  0  0  0  0  0
   -9.6995   -2.4000    0.0000 C   0  0  0  0  0  0  0  0  0  0  0  0
   -9.6995   -4.0000    0.0000 N   0  0  0  0  0  0  0  0  0  0  0  0
   -8.3138   -4.8000    0.0000 C   0  0  0  0  0  0  0  0  0  0  0  0
   -6.9282   -4.0000    0.0000 C   0  0  0  0  0  0  0  0  0  0  0  0
  -11.0851   -4.8000    0.0000 C   0  0  0  0  0  0  0  0  0  0  0  0
  -12.4708   -4.0000    0.0000 C   0  0  0  0  0  0  0  0  0  0  0  0
  -12.4708   -2.4000    0.0000 C   0  0  0  0  0  0  0  0  0  0  0  0
  -13.8564   -1.6000    0.0000 C   0  0  0  0  0  0  0  0  0  0  0  0
  -15.2420   -2.4000    0.0000 C   0  0  0  0  0  0  0  0  0  0  0  0
  -15.2420   -4.0000    0.0000 C   0  0  0  0  0  0  0  0  0  0  0  0
  -13.8564   -4.8000    0.0000 C   0  0  0  0  0  0  0  0  0  0  0  0
  -16.7637   -4.4944    0.0000 O   0  0  0  0  0  0  0  0  0  0  0  0
  -17.7042   -3.2000    0.0000 C   0  0  0  0  0  0  0  0  0  0  0  0
  -16.7637   -1.9056    0.0000 O   0  0  0  0  0  0  0  0  0  0  0  0
    4.1569   -2.4000    0.0000 Br  0  0  0  0  0  0  0  0  0  0  0  0
  1  2  1  0  0  0  0
  1  6  2  0  0  0  0
  2  3  2  0  0  0  0
  2 31  1  0  0  0  0
  3  4  1  0  0  0  0
  4  5  2  0  0  0  0
  5  6  1  0  0  0  0
  5 10  1  0  0  0  0
  6  7  1  0  0  0  0
  7  8  1  0  0  0  0
  8  9  2  0  0  0  0
  8 12  1  0  0  0  0
  9 10  1  0  0  0  0
 10 11  2  0  0  0  0
 12 13  1  0  0  0  0
 12 15  2  0  0  0  0
 14 13  1  6  0  0  0
 14 16  1  0  0  0  0
 14 20  1  0  0  0  0
 16 17  1  0  0  0  0
 17 18  1  0  0  0  0
 18 19  1  0  0  0  0
 18 21  1  1  0  0  0
 19 20  1  0  0  0  0
 21 22  1  0  0  0  0
 22 23  1  0  0  0  0
 22 27  2  0  0  0  0
 23 24  2  0  0  0  0
 24 25  1  0  0  0  0
 25 26  2  0  0  0  0
 25 30  1  0  0  0  0
 26 27  1  0  0  0  0
 26 28  1  0  0  0  0
 28 29  1  0  0  0  0
 29 30  1  0  0  0  0
M  END
> <Acceptable>
false

> <IC50>
2.5

$$$$

Generated by Molecular Materials Informatics

 31 35  0  0  0  0  0  0  0  0999 V2000
    1.3856   -2.4000    0.0000 C   0  0  0  0  0  0  0  0  0  0  0  0
    2.7713   -1.6000    0.0000 C   0  0  0  0  0  0  0  0  0  0  0  0
    2.7713    0.0000    0.0000 C   0  0  0  0  0  0  0  0  0  0  0  0
    1.3856    0.8000    0.0000 C   0  0  0  0  0  0  0  0  0  0  0  0
    0.0000    0.0000    0.0000 C   0  0  0  0  0  0  0  0  0  0  0  0
    0.0000   -1.6000    0.0000 C   0  0  0  0  0  0  0  0  0  0  0  0
   -1.3856   -2.4000    0.0000 O   0  0  0  0  0  0  0  0  0  0  0  0
   -2.7713   -1.6000    0.0000 C   0  0  0  0  0  0  0  0  0  0  0  0
   -2.7713    0.0000    0.0000 C   0  0  0  0  0  0  0  0  0  0  0  0
   -1.3856    0.8000    0.0000 C   0  0  0  0  0  0  0  0  0  0  0  0
   -1.3856    2.4000    0.0000 O   0  0  0  0  0  0  0  0  0  0  0  0
   -4.1569   -2.4000    0.0000 C   0  0  0  0  0  0  0  0  0  0  0  0
   -5.5426   -1.6000    0.0000 N   0  0  0  0  0  0  0  0  0  0  0  0
   -6.9282   -2.4000    0.0000 C   0  0  0  0  0  0  0  0  0  0  0  0
   -4.1569   -4.0000    0.0000 O   0  0  0  0  0  0  0  0  0  0  0  0
   -8.3138   -1.6000    0.0000 C   0  0  0  0  0  0  0  0  0  0  0  0
   -9.6995   -2.4000    0.0000 C   0  0  0  0  0  0  0  0  0  0  0  0
   -9.6995   -4.0000    0.0000 N   0  0  0  0  0  0  0  0  0  0  0  0
   -8.3138   -4.8000    0.0000 C   0  0  0  0  0  0  0  0  0  0  0  0
   -6.9282   -4.0000    0.0000 C   0  0  0  0  0  0  0  0  0  0  0  0
  -11.0851   -4.8000    0.0000 C   0  0  0  0  0  0  0  0  0  0  0  0
  -12.4708   -4.0000    0.0000 C   0  0  0  0  0  0  0  0  0  0  0  0
  -12.4708   -2.4000    0.0000 C   0  0  0  0  0  0  0  0  0  0  0  0
  -13.8564   -1.6000    0.0000 C   0  0  0  0  0  0  0  0  0  0  0  0
  -15.2420   -2.4000    0.0000 C   0  0  0  0  0  0  0  0  0  0  0  0
  -15.2420   -4.0000    0.0000 C   0  0  0  0  0  0  0  0  0  0  0  0
  -13.8564   -4.8000    0.0000 C   0  0  0  0  0  0  0  0  0  0  0  0
  -16.7637   -4.4944    0.0000 O   0  0  0  0  0  0  0  0  0  0  0  0
  -17.7042   -3.2000    0.0000 C   0  0  0  0  0  0  0  0  0  0  0  0
  -16.7637   -1.9056    0.0000 O   0  0  0  0  0  0  0  0  0  0  0  0
    4.1569   -2.4000    0.0000 Cl  0  0  0  0  0  0  0  0  0  0  0  0
  1  2  1  0  0  0  0
  1  6  2  0  0  0  0
  2  3  2  0  0  0  0
  2 31  1  0  0  0  0
  3  4  1  0  0  0  0
  4  5  2  0  0  0  0
  5  6  1  0  0  0  0
  5 10  1  0  0  0  0
  6  7  1  0  0  0  0
  7  8  1  0  0  0  0
  8  9  2  0  0  0  0
  8 12  1  0  0  0  0
  9 10  1  0  0  0  0
 10 11  2  0  0  0  0
 12 13  1  0  0  0  0
 12 15  2  0  0  0  0
 14 13  1  6  0  0  0
 14 16  1  0  0  0  0
 14 20  1  0  0  0  0
 16 17  1  0  0  0  0
 17 18  1  0  0  0  0
 18 19  1  0  0  0  0
 18 21  1  1  0  0  0
 19 20  1  0  0  0  0
 21 22  1  0  0  0  0
 22 23  1  0  0  0  0
 22 27  2  0  0  0  0
 23 24  2  0  0  0  0
 24 25  1  0  0  0  0
 25 26  2  0  0  0  0
 25 30  1  0  0  0  0
 26 27  1  0  0  0  0
 26 28  1  0  0  0  0
 28 29  1  0  0  0  0
 29 30  1  0  0  0  0
M  END
> <Acceptable>
false

> <IC50>
3.6

$$$$

Generated by Molecular Materials Informatics

 31 35  0  0  0  0  0  0  0  0999 V2000
    1.3856   -2.4000    0.0000 C   0  0  0  0  0  0  0  0  0  0  0  0
    2.7713   -1.6000    0.0000 C   0  0  0  0  0  0  0  0  0  0  0  0
    2.7713    0.0000    0.0000 C   0  0  0  0  0  0  0  0  0  0  0  0
    1.3856    0.8000    0.0000 C   0  0  0  0  0  0  0  0  0  0  0  0
    0.0000    0.0000    0.0000 C   0  0  0  0  0  0  0  0  0  0  0  0
    0.0000   -1.6000    0.0000 C   0  0  0  0  0  0  0  0  0  0  0  0
   -1.3856   -2.4000    0.0000 O   0  0  0  0  0  0  0  0  0  0  0  0
   -2.7713   -1.6000    0.0000 C   0  0  0  0  0  0  0  0  0  0  0  0
   -2.7713    0.0000    0.0000 C   0  0  0  0  0  0  0  0  0  0  0  0
   -1.3856    0.8000    0.0000 C   0  0  0  0  0  0  0  0  0  0  0  0
   -1.3856    2.4000    0.0000 O   0  0  0  0  0  0  0  0  0  0  0  0
   -4.1569   -2.4000    0.0000 C   0  0  0  0  0  0  0  0  0  0  0  0
   -5.5426   -1.6000    0.0000 N   0  0  0  0  0  0  0  0  0  0  0  0
   -6.9282   -2.4000    0.0000 C   0  0  0  0  0  0  0  0  0  0  0  0
   -4.1569   -4.0000    0.0000 O   0  0  0  0  0  0  0  0  0  0  0  0
   -8.3138   -1.6000    0.0000 C   0  0  0  0  0  0  0  0  0  0  0  0
   -9.6995   -2.4000    0.0000 C   0  0  0  0  0  0  0  0  0  0  0  0
   -9.6995   -4.0000    0.0000 N   0  0  0  0  0  0  0  0  0  0  0  0
   -8.3138   -4.8000    0.0000 C   0  0  0  0  0  0  0  0  0  0  0  0
   -6.9282   -4.0000    0.0000 C   0  0  0  0  0  0  0  0  0  0  0  0
  -11.0851   -4.8000    0.0000 C   0  0  0  0  0  0  0  0  0  0  0  0
  -12.4708   -4.0000    0.0000 C   0  0  0  0  0  0  0  0  0  0  0  0
  -12.4708   -2.4000    0.0000 C   0  0  0  0  0  0  0  0  0  0  0  0
  -13.8564   -1.6000    0.0000 C   0  0  0  0  0  0  0  0  0  0  0  0
  -15.2420   -2.4000    0.0000 C   0  0  0  0  0  0  0  0  0  0  0  0
  -15.2420   -4.0000    0.0000 C   0  0  0  0  0  0  0  0  0  0  0  0
  -13.8564   -4.8000    0.0000 C   0  0  0  0  0  0  0  0  0  0  0  0
  -16.7637   -4.4944    0.0000 O   0  0  0  0  0  0  0  0  0  0  0  0
  -17.7042   -3.2000    0.0000 C   0  0  0  0  0  0  0  0  0  0  0  0
  -16.7637   -1.9056    0.0000 O   0  0  0  0  0  0  0  0  0  0  0  0
    4.1569   -2.4000    0.0000 F   0  0  0  0  0  0  0  0  0  0  0  0
  1  2  1  0  0  0  0
  1  6  2  0  0  0  0
  2  3  2  0  0  0  0
  2 31  1  0  0  0  0
  3  4  1  0  0  0  0
  4  5  2  0  0  0  0
  5  6  1  0  0  0  0
  5 10  1  0  0  0  0
  6  7  1  0  0  0  0
  7  8  1  0  0  0  0
  8  9  2  0  0  0  0
  8 12  1  0  0  0  0
  9 10  1  0  0  0  0
 10 11  2  0  0  0  0
 12 13  1  0  0  0  0
 12 15  2  0  0  0  0
 14 13  1  6  0  0  0
 14 16  1  0  0  0  0
 14 20  1  0  0  0  0
 16 17  1  0  0  0  0
 17 18  1  0  0  0  0
 18 19  1  0  0  0  0
 18 21  1  1  0  0  0
 19 20  1  0  0  0  0
 21 22  1  0  0  0  0
 22 23  1  0  0  0  0
 22 27  2  0  0  0  0
 23 24  2  0  0  0  0
 24 25  1  0  0  0  0
 25 26  2  0  0  0  0
 25 30  1  0  0  0  0
 26 27  1  0  0  0  0
 26 28  1  0  0  0  0
 28 29  1  0  0  0  0
 29 30  1  0  0  0  0
M  END
> <Acceptable>
false

> <IC50>
15.1

$$$$

Generated by Molecular Materials Informatics

 32 36  0  0  0  0  0  0  0  0999 V2000
    1.3856   -2.4000    0.0000 C   0  0  0  0  0  0  0  0  0  0  0  0
    2.7713   -1.6000    0.0000 C   0  0  0  0  0  0  0  0  0  0  0  0
    2.7713    0.0000    0.0000 C   0  0  0  0  0  0  0  0  0  0  0  0
    1.3856    0.8000    0.0000 C   0  0  0  0  0  0  0  0  0  0  0  0
    0.0000    0.0000    0.0000 C   0  0  0  0  0  0  0  0  0  0  0  0
    0.0000   -1.6000    0.0000 C   0  0  0  0  0  0  0  0  0  0  0  0
   -1.3856   -2.4000    0.0000 O   0  0  0  0  0  0  0  0  0  0  0  0
   -2.7713   -1.6000    0.0000 C   0  0  0  0  0  0  0  0  0  0  0  0
   -2.7713    0.0000    0.0000 C   0  0  0  0  0  0  0  0  0  0  0  0
   -1.3856    0.8000    0.0000 C   0  0  0  0  0  0  0  0  0  0  0  0
   -1.3856    2.4000    0.0000 O   0  0  0  0  0  0  0  0  0  0  0  0
   -4.1569   -2.4000    0.0000 C   0  0  0  0  0  0  0  0  0  0  0  0
   -5.5426   -1.6000    0.0000 N   0  0  0  0  0  0  0  0  0  0  0  0
   -6.9282   -2.4000    0.0000 C   0  0  0  0  0  0  0  0  0  0  0  0
   -4.1569   -4.0000    0.0000 O   0  0  0  0  0  0  0  0  0  0  0  0
   -8.3138   -1.6000    0.0000 C   0  0  0  0  0  0  0  0  0  0  0  0
   -9.6995   -2.4000    0.0000 C   0  0  0  0  0  0  0  0  0  0  0  0
   -9.6995   -4.0000    0.0000 N   0  0  0  0  0  0  0  0  0  0  0  0
   -8.3138   -4.8000    0.0000 C   0  0  0  0  0  0  0  0  0  0  0  0
   -6.9282   -4.0000    0.0000 C   0  0  0  0  0  0  0  0  0  0  0  0
  -11.0851   -4.8000    0.0000 C   0  0  0  0  0  0  0  0  0  0  0  0
  -12.4708   -4.0000    0.0000 C   0  0  0  0  0  0  0  0  0  0  0  0
  -12.4708   -2.4000    0.0000 C   0  0  0  0  0  0  0  0  0  0  0  0
  -13.8564   -1.6000    0.0000 C   0  0  0  0  0  0  0  0  0  0  0  0
  -15.2420   -2.4000    0.0000 C   0  0  0  0  0  0  0  0  0  0  0  0
  -15.2420   -4.0000    0.0000 C   0  0  0  0  0  0  0  0  0  0  0  0
  -13.8564   -4.8000    0.0000 C   0  0  0  0  0  0  0  0  0  0  0  0
  -16.7637   -4.4944    0.0000 O   0  0  0  0  0  0  0  0  0  0  0  0
  -17.7042   -3.2000    0.0000 C   0  0  0  0  0  0  0  0  0  0  0  0
  -16.7637   -1.9056    0.0000 O   0  0  0  0  0  0  0  0  0  0  0  0
    4.1569   -2.4000    0.0000 C   0  3  0  0  0  0  0  0  0  0  0  0
    5.5426   -1.6000    0.0000 N   0  5  0  0  0  0  0  0  0  0  0  0
  1  2  1  0  0  0  0
  1  6  2  0  0  0  0
  2  3  2  0  0  0  0
  2 31  1  0  0  0  0
  3  4  1  0  0  0  0
  4  5  2  0  0  0  0
  5  6  1  0  0  0  0
  5 10  1  0  0  0  0
  6  7  1  0  0  0  0
  7  8  1  0  0  0  0
  8  9  2  0  0  0  0
  8 12  1  0  0  0  0
  9 10  1  0  0  0  0
 10 11  2  0  0  0  0
 12 13  1  0  0  0  0
 12 15  2  0  0  0  0
 14 13  1  6  0  0  0
 14 16  1  0  0  0  0
 14 20  1  0  0  0  0
 16 17  1  0  0  0  0
 17 18  1  0  0  0  0
 18 19  1  0  0  0  0
 18 21  1  1  0  0  0
 19 20  1  0  0  0  0
 21 22  1  0  0  0  0
 22 23  1  0  0  0  0
 22 27  2  0  0  0  0
 23 24  2  0  0  0  0
 24 25  1  0  0  0  0
 25 26  2  0  0  0  0
 25 30  1  0  0  0  0
 26 27  1  0  0  0  0
 26 28  1  0  0  0  0
 28 29  1  0  0  0  0
 29 30  1  0  0  0  0
 31 32  2  0  0  0  0
M  CHG  2  31   1  32  -1
M  END
> <Acceptable>
false

> <IC50>
5

$$$$

Generated by Molecular Materials Informatics

 31 35  0  0  0  0  0  0  0  0999 V2000
    1.3856   -2.4000    0.0000 C   0  0  0  0  0  0  0  0  0  0  0  0
    2.7713   -1.6000    0.0000 C   0  0  0  0  0  0  0  0  0  0  0  0
    2.7713    0.0000    0.0000 C   0  0  0  0  0  0  0  0  0  0  0  0
    1.3856    0.8000    0.0000 C   0  0  0  0  0  0  0  0  0  0  0  0
    0.0000    0.0000    0.0000 C   0  0  0  0  0  0  0  0  0  0  0  0
    0.0000   -1.6000    0.0000 C   0  0  0  0  0  0  0  0  0  0  0  0
   -1.3856   -2.4000    0.0000 O   0  0  0  0  0  0  0  0  0  0  0  0
   -2.7713   -1.6000    0.0000 C   0  0  0  0  0  0  0  0  0  0  0  0
   -2.7713    0.0000    0.0000 C   0  0  0  0  0  0  0  0  0  0  0  0
   -1.3856    0.8000    0.0000 C   0  0  0  0  0  0  0  0  0  0  0  0
   -1.3856    2.4000    0.0000 O   0  0  0  0  0  0  0  0  0  0  0  0
   -4.1569   -2.4000    0.0000 C   0  0  0  0  0  0  0  0  0  0  0  0
   -5.5426   -1.6000    0.0000 N   0  0  0  0  0  0  0  0  0  0  0  0
   -6.9282   -2.4000    0.0000 C   0  0  0  0  0  0  0  0  0  0  0  0
   -4.1569   -4.0000    0.0000 O   0  0  0  0  0  0  0  0  0  0  0  0
   -8.3138   -1.6000    0.0000 C   0  0  0  0  0  0  0  0  0  0  0  0
   -9.6995   -2.4000    0.0000 C   0  0  0  0  0  0  0  0  0  0  0  0
   -9.6995   -4.0000    0.0000 N   0  0  0  0  0  0  0  0  0  0  0  0
   -8.3138   -4.8000    0.0000 C   0  0  0  0  0  0  0  0  0  0  0  0
   -6.9282   -4.0000    0.0000 C   0  0  0  0  0  0  0  0  0  0  0  0
  -11.0851   -4.8000    0.0000 C   0  0  0  0  0  0  0  0  0  0  0  0
  -12.4708   -4.0000    0.0000 C   0  0  0  0  0  0  0  0  0  0  0  0
  -12.4708   -2.4000    0.0000 C   0  0  0  0  0  0  0  0  0  0  0  0
  -13.8564   -1.6000    0.0000 C   0  0  0  0  0  0  0  0  0  0  0  0
  -15.2420   -2.4000    0.0000 C   0  0  0  0  0  0  0  0  0  0  0  0
  -15.2420   -4.0000    0.0000 C   0  0  0  0  0  0  0  0  0  0  0  0
  -13.8564   -4.8000    0.0000 C   0  0  0  0  0  0  0  0  0  0  0  0
  -16.7637   -4.4944    0.0000 O   0  0  0  0  0  0  0  0  0  0  0  0
  -17.7042   -3.2000    0.0000 C   0  0  0  0  0  0  0  0  0  0  0  0
  -16.7637   -1.9056    0.0000 O   0  0  0  0  0  0  0  0  0  0  0  0
    4.1569    0.8000    0.0000 F   0  0  0  0  0  0  0  0  0  0  0  0
  1  2  1  0  0  0  0
  1  6  2  0  0  0  0
  2  3  2  0  0  0  0
  3  4  1  0  0  0  0
  3 31  1  0  0  0  0
  4  5  2  0  0  0  0
  5  6  1  0  0  0  0
  5 10  1  0  0  0  0
  6  7  1  0  0  0  0
  7  8  1  0  0  0  0
  8  9  2  0  0  0  0
  8 12  1  0  0  0  0
  9 10  1  0  0  0  0
 10 11  2  0  0  0  0
 12 13  1  0  0  0  0
 12 15  2  0  0  0  0
 14 13  1  6  0  0  0
 14 16  1  0  0  0  0
 14 20  1  0  0  0  0
 16 17  1  0  0  0  0
 17 18  1  0  0  0  0
 18 19  1  0  0  0  0
 18 21  1  1  0  0  0
 19 20  1  0  0  0  0
 21 22  1  0  0  0  0
 22 23  1  0  0  0  0
 22 27  2  0  0  0  0
 23 24  2  0  0  0  0
 24 25  1  0  0  0  0
 25 26  2  0  0  0  0
 25 30  1  0  0  0  0
 26 27  1  0  0  0  0
 26 28  1  0  0  0  0
 28 29  1  0  0  0  0
 29 30  1  0  0  0  0
M  END
> <Acceptable>
false

> <IC50>
4

$$$$

Generated by Molecular Materials Informatics

 30 34  0  0  0  0  0  0  0  0999 V2000
   -1.3856   -2.4000    0.0000 C   0  0  0  0  0  0  0  0  0  0  0  0
   -2.7713   -1.6000    0.0000 C   0  0  0  0  0  0  0  0  0  0  0  0
   -2.7713    0.0000    0.0000 C   0  0  0  0  0  0  0  0  0  0  0  0
   -1.3856    0.8000    0.0000 C   0  0  0  0  0  0  0  0  0  0  0  0
    0.0000    0.0000    0.0000 C   0  0  0  0  0  0  0  0  0  0  0  0
    0.0000   -1.6000    0.0000 C   0  0  0  0  0  0  0  0  0  0  0  0
    1.3856   -2.4000    0.0000 O   0  0  0  0  0  0  0  0  0  0  0  0
    2.7713   -1.6000    0.0000 C   0  0  0  0  0  0  0  0  0  0  0  0
    2.7713    0.0000    0.0000 C   0  0  0  0  0  0  0  0  0  0  0  0
    1.3856    0.8000    0.0000 C   0  0  0  0  0  0  0  0  0  0  0  0
    1.3856    2.4000    0.0000 O   0  0  0  0  0  0  0  0  0  0  0  0
    4.1569   -2.4000    0.0000 C   0  0  0  0  0  0  0  0  0  0  0  0
    5.5426   -1.6000    0.0000 N   0  0  0  0  0  0  0  0  0  0  0  0
    6.9282   -2.4000    0.0000 C   0  0  0  0  0  0  0  0  0  0  0  0
    4.1569   -4.0000    0.0000 O   0  0  0  0  0  0  0  0  0  0  0  0
    8.3138   -1.6000    0.0000 C   0  0  0  0  0  0  0  0  0  0  0  0
    9.6995   -2.4000    0.0000 C   0  0  0  0  0  0  0  0  0  0  0  0
    9.6995   -4.0000    0.0000 N   0  0  0  0  0  0  0  0  0  0  0  0
    8.3138   -4.8000    0.0000 C   0  0  0  0  0  0  0  0  0  0  0  0
    6.9282   -4.0000    0.0000 C   0  0  0  0  0  0  0  0  0  0  0  0
   11.0851   -4.8000    0.0000 C   0  0  0  0  0  0  0  0  0  0  0  0
   12.4708   -4.0000    0.0000 C   0  0  0  0  0  0  0  0  0  0  0  0
   12.4708   -2.4000    0.0000 C   0  0  0  0  0  0  0  0  0  0  0  0
   13.8564   -1.6000    0.0000 C   0  0  0  0  0  0  0  0  0  0  0  0
   15.2420   -2.4000    0.0000 C   0  0  0  0  0  0  0  0  0  0  0  0
   15.2420   -4.0000    0.0000 C   0  0  0  0  0  0  0  0  0  0  0  0
   13.8564   -4.8000    0.0000 C   0  0  0  0  0  0  0  0  0  0  0  0
   16.7637   -4.4944    0.0000 O   0  0  0  0  0  0  0  0  0  0  0  0
   17.7042   -3.2000    0.0000 C   0  0  0  0  0  0  0  0  0  0  0  0
   16.7637   -1.9056    0.0000 O   0  0  0  0  0  0  0  0  0  0  0  0
  1  2  1  0  0  0  0
  1  6  2  0  0  0  0
  2  3  2  0  0  0  0
  3  4  1  0  0  0  0
  4  5  2  0  0  0  0
  5  6  1  0  0  0  0
  5 10  1  0  0  0  0
  6  7  1  0  0  0  0
  7  8  1  0  0  0  0
  8  9  2  0  0  0  0
  8 12  1  0  0  0  0
  9 10  1  0  0  0  0
 10 11  2  0  0  0  0
 12 13  1  0  0  0  0
 12 15  2  0  0  0  0
 14 13  1  1  0  0  0
 14 16  1  0  0  0  0
 14 20  1  0  0  0  0
 16 17  1  0  0  0  0
 17 18  1  0  0  0  0
 18 19  1  0  0  0  0
 18 21  1  6  0  0  0
 19 20  1  0  0  0  0
 21 22  1  0  0  0  0
 22 23  1  0  0  0  0
 22 27  2  0  0  0  0
 23 24  2  0  0  0  0
 24 25  1  0  0  0  0
 25 26  2  0  0  0  0
 25 30  1  0  0  0  0
 26 27  1  0  0  0  0
 26 28  1  0  0  0  0
 28 29  1  0  0  0  0
 29 30  1  0  0  0  0
M  END
> <Acceptable>
false

> <IC50>
6.7

$$$$

Generated by Molecular Materials Informatics

 32 36  0  0  0  0  0  0  0  0999 V2000
    1.3856   -2.4000    0.0000 C   0  0  0  0  0  0  0  0  0  0  0  0
    2.7713   -1.6000    0.0000 C   0  0  0  0  0  0  0  0  0  0  0  0
    2.7713    0.0000    0.0000 C   0  0  0  0  0  0  0  0  0  0  0  0
    1.3856    0.8000    0.0000 C   0  0  0  0  0  0  0  0  0  0  0  0
    0.0000    0.0000    0.0000 C   0  0  0  0  0  0  0  0  0  0  0  0
    0.0000   -1.6000    0.0000 C   0  0  0  0  0  0  0  0  0  0  0  0
   -1.3856   -2.4000    0.0000 O   0  0  0  0  0  0  0  0  0  0  0  0
   -2.7713   -1.6000    0.0000 C   0  0  0  0  0  0  0  0  0  0  0  0
   -2.7713    0.0000    0.0000 C   0  0  0  0  0  0  0  0  0  0  0  0
   -1.3856    0.8000    0.0000 C   0  0  0  0  0  0  0  0  0  0  0  0
   -1.3856    2.4000    0.0000 O   0  0  0  0  0  0  0  0  0  0  0  0
   -4.1569   -2.4000    0.0000 C   0  0  0  0  0  0  0  0  0  0  0  0
   -5.5426   -1.6000    0.0000 N   0  0  0  0  0  0  0  0  0  0  0  0
   -6.9282   -2.4000    0.0000 C   0  0  0  0  0  0  0  0  0  0  0  0
   -4.1569   -4.0000    0.0000 O   0  0  0  0  0  0  0  0  0  0  0  0
   -8.3138   -1.6000    0.0000 C   0  0  0  0  0  0  0  0  0  0  0  0
   -9.6995   -2.4000    0.0000 C   0  0  0  0  0  0  0  0  0  0  0  0
   -9.6995   -4.0000    0.0000 N   0  0  0  0  0  0  0  0  0  0  0  0
   -8.3138   -4.8000    0.0000 C   0  0  0  0  0  0  0  0  0  0  0  0
   -6.9282   -4.0000    0.0000 C   0  0  0  0  0  0  0  0  0  0  0  0
  -11.0851   -4.8000    0.0000 C   0  0  0  0  0  0  0  0  0  0  0  0
  -12.4708   -4.0000    0.0000 C   0  0  0  0  0  0  0  0  0  0  0  0
  -12.4708   -2.4000    0.0000 C   0  0  0  0  0  0  0  0  0  0  0  0
  -13.8564   -1.6000    0.0000 C   0  0  0  0  0  0  0  0  0  0  0  0
  -15.2420   -2.4000    0.0000 C   0  0  0  0  0  0  0  0  0  0  0  0
  -15.2420   -4.0000    0.0000 C   0  0  0  0  0  0  0  0  0  0  0  0
  -13.8564   -4.8000    0.0000 C   0  0  0  0  0  0  0  0  0  0  0  0
  -16.7637   -4.4944    0.0000 O   0  0  0  0  0  0  0  0  0  0  0  0
  -17.7042   -3.2000    0.0000 C   0  0  0  0  0  0  0  0  0  0  0  0
  -16.7637   -1.9056    0.0000 O   0  0  0  0  0  0  0  0  0  0  0  0
    4.1569    0.8000    0.0000 F   0  0  0  0  0  0  0  0  0  0  0  0
    4.1569   -2.4000    0.0000 Cl  0  0  0  0  0  0  0  0  0  0  0  0
  1  2  1  0  0  0  0
  1  6  2  0  0  0  0
  2  3  2  0  0  0  0
  2 32  1  0  0  0  0
  3  4  1  0  0  0  0
  3 31  1  0  0  0  0
  4  5  2  0  0  0  0
  5  6  1  0  0  0  0
  5 10  1  0  0  0  0
  6  7  1  0  0  0  0
  7  8  1  0  0  0  0
  8  9  2  0  0  0  0
  8 12  1  0  0  0  0
  9 10  1  0  0  0  0
 10 11  2  0  0  0  0
 12 13  1  0  0  0  0
 12 15  2  0  0  0  0
 14 13  1  6  0  0  0
 14 16  1  0  0  0  0
 14 20  1  0  0  0  0
 16 17  1  0  0  0  0
 17 18  1  0  0  0  0
 18 19  1  0  0  0  0
 18 21  1  1  0  0  0
 19 20  1  0  0  0  0
 21 22  1  0  0  0  0
 22 23  1  0  0  0  0
 22 27  2  0  0  0  0
 23 24  2  0  0  0  0
 24 25  1  0  0  0  0
 25 26  2  0  0  0  0
 25 30  1  0  0  0  0
 26 27  1  0  0  0  0
 26 28  1  0  0  0  0
 28 29  1  0  0  0  0
 29 30  1  0  0  0  0
M  END
> <Acceptable>
false

> <IC50>
10.5

$$$$

Generated by Molecular Materials Informatics

 33 37  0  0  0  0  0  0  0  0999 V2000
    1.3856   -2.4000    0.0000 C   0  0  0  0  0  0  0  0  0  0  0  0
    2.7713   -1.6000    0.0000 C   0  0  0  0  0  0  0  0  0  0  0  0
    2.7713    0.0000    0.0000 C   0  0  0  0  0  0  0  0  0  0  0  0
    1.3856    0.8000    0.0000 C   0  0  0  0  0  0  0  0  0  0  0  0
    0.0000    0.0000    0.0000 C   0  0  0  0  0  0  0  0  0  0  0  0
    0.0000   -1.6000    0.0000 C   0  0  0  0  0  0  0  0  0  0  0  0
   -1.3856   -2.4000    0.0000 O   0  0  0  0  0  0  0  0  0  0  0  0
   -2.7713   -1.6000    0.0000 C   0  0  0  0  0  0  0  0  0  0  0  0
   -2.7713    0.0000    0.0000 C   0  0  0  0  0  0  0  0  0  0  0  0
   -1.3856    0.8000    0.0000 C   0  0  0  0  0  0  0  0  0  0  0  0
   -1.3856    2.4000    0.0000 O   0  0  0  0  0  0  0  0  0  0  0  0
   -4.1569   -2.4000    0.0000 C   0  0  0  0  0  0  0  0  0  0  0  0
   -5.5426   -1.6000    0.0000 N   0  0  0  0  0  0  0  0  0  0  0  0
   -6.9282   -2.4000    0.0000 C   0  0  0  0  0  0  0  0  0  0  0  0
   -4.1569   -4.0000    0.0000 O   0  0  0  0  0  0  0  0  0  0  0  0
   -8.3138   -1.6000    0.0000 C   0  0  0  0  0  0  0  0  0  0  0  0
   -9.6995   -2.4000    0.0000 C   0  0  0  0  0  0  0  0  0  0  0  0
   -9.6995   -4.0000    0.0000 N   0  0  0  0  0  0  0  0  0  0  0  0
   -8.3138   -4.8000    0.0000 C   0  0  0  0  0  0  0  0  0  0  0  0
   -6.9282   -4.0000    0.0000 C   0  0  0  0  0  0  0  0  0  0  0  0
  -11.0851   -4.8000    0.0000 C   0  0  0  0  0  0  0  0  0  0  0  0
  -12.4708   -4.0000    0.0000 C   0  0  0  0  0  0  0  0  0  0  0  0
  -12.4708   -2.4000    0.0000 C   0  0  0  0  0  0  0  0  0  0  0  0
  -13.8564   -1.6000    0.0000 C   0  0  0  0  0  0  0  0  0  0  0  0
  -15.2420   -2.4000    0.0000 C   0  0  0  0  0  0  0  0  0  0  0  0
  -15.2420   -4.0000    0.0000 C   0  0  0  0  0  0  0  0  0  0  0  0
  -13.8564   -4.8000    0.0000 C   0  0  0  0  0  0  0  0  0  0  0  0
  -16.7637   -4.4944    0.0000 O   0  0  0  0  0  0  0  0  0  0  0  0
  -17.7042   -3.2000    0.0000 C   0  0  0  0  0  0  0  0  0  0  0  0
  -16.7637   -1.9056    0.0000 O   0  0  0  0  0  0  0  0  0  0  0  0
    4.1569    0.8000    0.0000 F   0  0  0  0  0  0  0  0  0  0  0  0
    4.1569   -2.4000    0.0000 O   0  0  0  0  0  0  0  0  0  0  0  0
    4.1569   -4.0000    0.0000 C   0  0  0  0  0  0  0  0  0  0  0  0
  1  2  1  0  0  0  0
  1  6  2  0  0  0  0
  2  3  2  0  0  0  0
  2 32  1  0  0  0  0
  3  4  1  0  0  0  0
  3 31  1  0  0  0  0
  4  5  2  0  0  0  0
  5  6  1  0  0  0  0
  5 10  1  0  0  0  0
  6  7  1  0  0  0  0
  7  8  1  0  0  0  0
  8  9  2  0  0  0  0
  8 12  1  0  0  0  0
  9 10  1  0  0  0  0
 10 11  2  0  0  0  0
 12 13  1  0  0  0  0
 12 15  2  0  0  0  0
 14 13  1  6  0  0  0
 14 16  1  0  0  0  0
 14 20  1  0  0  0  0
 16 17  1  0  0  0  0
 17 18  1  0  0  0  0
 18 19  1  0  0  0  0
 18 21  1  1  0  0  0
 19 20  1  0  0  0  0
 21 22  1  0  0  0  0
 22 23  1  0  0  0  0
 22 27  2  0  0  0  0
 23 24  2  0  0  0  0
 24 25  1  0  0  0  0
 25 26  2  0  0  0  0
 25 30  1  0  0  0  0
 26 27  1  0  0  0  0
 26 28  1  0  0  0  0
 28 29  1  0  0  0  0
 29 30  1  0  0  0  0
 32 33  1  0  0  0  0
M  END
> <Acceptable>
false

> <IC50>
15.9

$$$$

Generated by Molecular Materials Informatics

 32 36  0  0  0  0  0  0  0  0999 V2000
    1.3856   -2.4000    0.0000 C   0  0  0  0  0  0  0  0  0  0  0  0
    2.7713   -1.6000    0.0000 C   0  0  0  0  0  0  0  0  0  0  0  0
    2.7713    0.0000    0.0000 C   0  0  0  0  0  0  0  0  0  0  0  0
    1.3856    0.8000    0.0000 C   0  0  0  0  0  0  0  0  0  0  0  0
    0.0000    0.0000    0.0000 C   0  0  0  0  0  0  0  0  0  0  0  0
    0.0000   -1.6000    0.0000 C   0  0  0  0  0  0  0  0  0  0  0  0
   -1.3856   -2.4000    0.0000 O   0  0  0  0  0  0  0  0  0  0  0  0
   -2.7713   -1.6000    0.0000 C   0  0  0  0  0  0  0  0  0  0  0  0
   -2.7713    0.0000    0.0000 C   0  0  0  0  0  0  0  0  0  0  0  0
   -1.3856    0.8000    0.0000 C   0  0  0  0  0  0  0  0  0  0  0  0
   -1.3856    2.4000    0.0000 O   0  0  0  0  0  0  0  0  0  0  0  0
   -4.1569   -2.4000    0.0000 C   0  0  0  0  0  0  0  0  0  0  0  0
   -5.5426   -1.6000    0.0000 N   0  0  0  0  0  0  0  0  0  0  0  0
   -6.9282   -2.4000    0.0000 C   0  0  0  0  0  0  0  0  0  0  0  0
   -4.1569   -4.0000    0.0000 O   0  0  0  0  0  0  0  0  0  0  0  0
   -8.3138   -1.6000    0.0000 C   0  0  0  0  0  0  0  0  0  0  0  0
   -9.6995   -2.4000    0.0000 C   0  0  0  0  0  0  0  0  0  0  0  0
   -9.6995   -4.0000    0.0000 N   0  0  0  0  0  0  0  0  0  0  0  0
   -8.3138   -4.8000    0.0000 C   0  0  0  0  0  0  0  0  0  0  0  0
   -6.9282   -4.0000    0.0000 C   0  0  0  0  0  0  0  0  0  0  0  0
  -11.0851   -4.8000    0.0000 C   0  0  0  0  0  0  0  0  0  0  0  0
  -12.4708   -4.0000    0.0000 C   0  0  0  0  0  0  0  0  0  0  0  0
  -12.4708   -2.4000    0.0000 C   0  0  0  0  0  0  0  0  0  0  0  0
  -13.8564   -1.6000    0.0000 C   0  0  0  0  0  0  0  0  0  0  0  0
  -15.2420   -2.4000    0.0000 C   0  0  0  0  0  0  0  0  0  0  0  0
  -15.2420   -4.0000    0.0000 C   0  0  0  0  0  0  0  0  0  0  0  0
  -13.8564   -4.8000    0.0000 C   0  0  0  0  0  0  0  0  0  0  0  0
  -16.7637   -4.4944    0.0000 O   0  0  0  0  0  0  0  0  0  0  0  0
  -17.7042   -3.2000    0.0000 C   0  0  0  0  0  0  0  0  0  0  0  0
  -16.7637   -1.9056    0.0000 O   0  0  0  0  0  0  0  0  0  0  0  0
    4.1569    0.8000    0.0000 Cl  0  0  0  0  0  0  0  0  0  0  0  0
    4.1569   -2.4000    0.0000 Cl  0  0  0  0  0  0  0  0  0  0  0  0
  1  2  1  0  0  0  0
  1  6  2  0  0  0  0
  2  3  2  0  0  0  0
  2 32  1  0  0  0  0
  3  4  1  0  0  0  0
  3 31  1  0  0  0  0
  4  5  2  0  0  0  0
  5  6  1  0  0  0  0
  5 10  1  0  0  0  0
  6  7  1  0  0  0  0
  7  8  1  0  0  0  0
  8  9  2  0  0  0  0
  8 12  1  0  0  0  0
  9 10  1  0  0  0  0
 10 11  2  0  0  0  0
 12 13  1  0  0  0  0
 12 15  2  0  0  0  0
 14 13  1  6  0  0  0
 14 16  1  0  0  0  0
 14 20  1  0  0  0  0
 16 17  1  0  0  0  0
 17 18  1  0  0  0  0
 18 19  1  0  0  0  0
 18 21  1  1  0  0  0
 19 20  1  0  0  0  0
 21 22  1  0  0  0  0
 22 23  1  0  0  0  0
 22 27  2  0  0  0  0
 23 24  2  0  0  0  0
 24 25  1  0  0  0  0
 25 26  2  0  0  0  0
 25 30  1  0  0  0  0
 26 27  1  0  0  0  0
 26 28  1  0  0  0  0
 28 29  1  0  0  0  0
 29 30  1  0  0  0  0
M  END
> <Acceptable>
false

> <IC50>
6.2

$$$$

Generated by Molecular Materials Informatics

 28 31  0  0  0  0  0  0  0  0999 V2000
   -1.3856   -2.4000    0.0000 C   0  0  0  0  0  0  0  0  0  0  0  0
   -2.7713   -1.6000    0.0000 C   0  0  0  0  0  0  0  0  0  0  0  0
   -2.7713    0.0000    0.0000 C   0  0  0  0  0  0  0  0  0  0  0  0
   -1.3856    0.8000    0.0000 C   0  0  0  0  0  0  0  0  0  0  0  0
    0.0000    0.0000    0.0000 C   0  0  0  0  0  0  0  0  0  0  0  0
    0.0000   -1.6000    0.0000 C   0  0  0  0  0  0  0  0  0  0  0  0
    1.3856   -2.4000    0.0000 O   0  0  0  0  0  0  0  0  0  0  0  0
    2.7713   -1.6000    0.0000 C   0  0  0  0  0  0  0  0  0  0  0  0
    2.7713    0.0000    0.0000 C   0  0  0  0  0  0  0  0  0  0  0  0
    1.3856    0.8000    0.0000 C   0  0  0  0  0  0  0  0  0  0  0  0
    1.3856    2.4000    0.0000 O   0  0  0  0  0  0  0  0  0  0  0  0
    4.1569   -2.4000    0.0000 C   0  0  0  0  0  0  0  0  0  0  0  0
    5.5426   -1.6000    0.0000 N   0  0  0  0  0  0  0  0  0  0  0  0
    6.9282   -2.4000    0.0000 C   0  0  0  0  0  0  0  0  0  0  0  0
    4.1569   -4.0000    0.0000 O   0  0  0  0  0  0  0  0  0  0  0  0
    8.3138   -1.6000    0.0000 C   0  0  0  0  0  0  0  0  0  0  0  0
    9.6995   -2.4000    0.0000 C   0  0  0  0  0  0  0  0  0  0  0  0
    9.6995   -4.0000    0.0000 N   0  0  0  0  0  0  0  0  0  0  0  0
    8.3138   -4.8000    0.0000 C   0  0  0  0  0  0  0  0  0  0  0  0
    6.9282   -4.0000    0.0000 C   0  0  0  0  0  0  0  0  0  0  0  0
   -4.1569   -2.4000    0.0000 F   0  0  0  0  0  0  0  0  0  0  0  0
   11.0851   -4.8000    0.0000 C   0  0  0  0  0  0  0  0  0  0  0  0
   12.4708   -4.0000    0.0000 C   0  0  0  0  0  0  0  0  0  0  0  0
   12.4708   -2.4000    0.0000 C   0  0  0  0  0  0  0  0  0  0  0  0
   13.8564   -1.6000    0.0000 C   0  0  0  0  0  0  0  0  0  0  0  0
   15.2420   -2.4000    0.0000 C   0  0  0  0  0  0  0  0  0  0  0  0
   15.2420   -4.0000    0.0000 C   0  0  0  0  0  0  0  0  0  0  0  0
   13.8564   -4.8000    0.0000 C   0  0  0  0  0  0  0  0  0  0  0  0
  1  2  1  0  0  0  0
  1  6  2  0  0  0  0
  2  3  2  0  0  0  0
  2 21  1  0  0  0  0
  3  4  1  0  0  0  0
  4  5  2  0  0  0  0
  5  6  1  0  0  0  0
  5 10  1  0  0  0  0
  6  7  1  0  0  0  0
  7  8  1  0  0  0  0
  8  9  2  0  0  0  0
  8 12  1  0  0  0  0
  9 10  1  0  0  0  0
 10 11  2  0  0  0  0
 12 13  1  0  0  0  0
 12 15  2  0  0  0  0
 14 13  1  1  0  0  0
 14 16  1  0  0  0  0
 14 20  1  0  0  0  0
 16 17  1  0  0  0  0
 17 18  1  0  0  0  0
 18 19  1  0  0  0  0
 18 22  1  6  0  0  0
 19 20  1  0  0  0  0
 22 23  1  0  0  0  0
 23 24  1  0  0  0  0
 23 28  2  0  0  0  0
 24 25  2  0  0  0  0
 25 26  1  0  0  0  0
 26 27  2  0  0  0  0
 27 28  1  0  0  0  0
M  END
> <Acceptable>
false

> <IC50>
19.9

$$$$

Generated by Molecular Materials Informatics

 33 37  0  0  0  0  0  0  0  0999 V2000
  -16.6277    1.6000    0.0000 C   0  0  0  0  0  0  0  0  0  0  0  0
  -18.0133    2.4000    0.0000 C   0  0  0  0  0  0  0  0  0  0  0  0
  -18.0133    4.0000    0.0000 C   0  0  0  0  0  0  0  0  0  0  0  0
  -16.6277    4.8000    0.0000 C   0  0  0  0  0  0  0  0  0  0  0  0
  -15.2420    4.0000    0.0000 C   0  0  0  0  0  0  0  0  0  0  0  0
  -15.2420    2.4000    0.0000 C   0  0  0  0  0  0  0  0  0  0  0  0
  -13.8564    1.6000    0.0000 O   0  0  0  0  0  0  0  0  0  0  0  0
  -12.4708    2.4000    0.0000 C   0  0  0  0  0  0  0  0  0  0  0  0
  -12.4708    4.0000    0.0000 C   0  0  0  0  0  0  0  0  0  0  0  0
  -13.8564    4.8000    0.0000 C   0  0  0  0  0  0  0  0  0  0  0  0
  -13.8564    6.4000    0.0000 O   0  0  0  0  0  0  0  0  0  0  0  0
  -19.3990    1.6000    0.0000 F   0  0  0  0  0  0  0  0  0  0  0  0
  -11.0851    1.6000    0.0000 C   0  0  0  0  0  0  0  0  0  0  0  0
   -9.6995    2.4000    0.0000 N   0  0  0  0  0  0  0  0  0  0  0  0
   -8.3138    1.6000    0.0000 C   0  0  0  0  0  0  0  0  0  0  0  0
  -11.0851    0.0000    0.0000 O   0  0  0  0  0  0  0  0  0  0  0  0
   -6.9282    2.4000    0.0000 C   0  0  0  0  0  0  0  0  0  0  0  0
   -5.5426    1.6000    0.0000 C   0  0  0  0  0  0  0  0  0  0  0  0
   -5.5426    0.0000    0.0000 N   0  0  0  0  0  0  0  0  0  0  0  0
   -6.9282   -0.8000    0.0000 C   0  0  0  0  0  0  0  0  0  0  0  0
   -8.3138    0.0000    0.0000 C   0  0  0  0  0  0  0  0  0  0  0  0
   -4.1569   -0.8000    0.0000 C   0  0  0  0  0  0  0  0  0  0  0  0
   -2.7713    0.0000    0.0000 C   0  0  0  0  0  0  0  0  0  0  0  0
   -2.7713    1.6000    0.0000 C   0  0  0  0  0  0  0  0  0  0  0  0
   -1.3856    2.4000    0.0000 C   0  0  0  0  0  0  0  0  0  0  0  0
    0.0000    1.6000    0.0000 C   0  0  0  0  0  0  0  0  0  0  0  0
    0.0000    0.0000    0.0000 C   0  0  0  0  0  0  0  0  0  0  0  0
   -1.3856   -0.8000    0.0000 C   0  0  0  0  0  0  0  0  0  0  0  0
    1.5217   -0.4944    0.0000 O   0  0  0  0  0  0  0  0  0  0  0  0
    2.4621    0.8000    0.0000 C   0  0  0  0  0  0  0  0  0  0  0  0
    1.5217    2.0944    0.0000 O   0  0  0  0  0  0  0  0  0  0  0  0
    3.6512    1.8706    0.0000 F   0  0  0  0  0  0  0  0  0  0  0  0
    3.6512   -0.2706    0.0000 F   0  0  0  0  0  0  0  0  0  0  0  0
  1  2  1  0  0  0  0
  1  6  2  0  0  0  0
  2  3  2  0  0  0  0
  2 12  1  0  0  0  0
  3  4  1  0  0  0  0
  4  5  2  0  0  0  0
  5  6  1  0  0  0  0
  5 10  1  0  0  0  0
  6  7  1  0  0  0  0
  7  8  1  0  0  0  0
  8  9  2  0  0  0  0
  8 13  1  0  0  0  0
  9 10  1  0  0  0  0
 10 11  2  0  0  0  0
 13 14  1  0  0  0  0
 13 16  2  0  0  0  0
 15 14  1  1  0  0  0
 15 17  1  0  0  0  0
 15 21  1  0  0  0  0
 17 18  1  0  0  0  0
 18 19  1  0  0  0  0
 19 20  1  0  0  0  0
 19 22  1  6  0  0  0
 20 21  1  0  0  0  0
 22 23  1  0  0  0  0
 23 24  1  0  0  0  0
 23 28  2  0  0  0  0
 24 25  2  0  0  0  0
 25 26  1  0  0  0  0
 26 27  2  0  0  0  0
 26 31  1  0  0  0  0
 27 28  1  0  0  0  0
 27 29  1  0  0  0  0
 29 30  1  0  0  0  0
 30 31  1  0  0  0  0
 30 32  1  0  0  0  0
 30 33  1  0  0  0  0
M  END
> <Acceptable>
false

> <IC50>
5.6

$$$$

Generated by Molecular Materials Informatics

 32 36  0  0  0  0  0  0  0  0999 V2000
   -1.3856   -2.4000    0.0000 C   0  0  0  0  0  0  0  0  0  0  0  0
   -2.7713   -1.6000    0.0000 C   0  0  0  0  0  0  0  0  0  0  0  0
   -2.7713    0.0000    0.0000 C   0  0  0  0  0  0  0  0  0  0  0  0
   -1.3856    0.8000    0.0000 C   0  0  0  0  0  0  0  0  0  0  0  0
    0.0000    0.0000    0.0000 C   0  0  0  0  0  0  0  0  0  0  0  0
    0.0000   -1.6000    0.0000 C   0  0  0  0  0  0  0  0  0  0  0  0
    1.3856   -2.4000    0.0000 O   0  0  0  0  0  0  0  0  0  0  0  0
    2.7713   -1.6000    0.0000 C   0  0  0  0  0  0  0  0  0  0  0  0
    2.7713    0.0000    0.0000 C   0  0  0  0  0  0  0  0  0  0  0  0
    1.3856    0.8000    0.0000 C   0  0  0  0  0  0  0  0  0  0  0  0
    1.3856    2.4000    0.0000 O   0  0  0  0  0  0  0  0  0  0  0  0
   -4.1569   -2.4000    0.0000 F   0  0  0  0  0  0  0  0  0  0  0  0
    4.1569   -2.4000    0.0000 C   0  0  0  0  0  0  0  0  0  0  0  0
    5.5426   -1.6000    0.0000 N   0  0  0  0  0  0  0  0  0  0  0  0
    6.9282   -2.4000    0.0000 C   0  0  0  0  0  0  0  0  0  0  0  0
    4.1569   -4.0000    0.0000 O   0  0  0  0  0  0  0  0  0  0  0  0
    8.3138   -1.6000    0.0000 C   0  0  0  0  0  0  0  0  0  0  0  0
    9.6995   -2.4000    0.0000 C   0  0  0  0  0  0  0  0  0  0  0  0
    9.6995   -4.0000    0.0000 N   0  0  0  0  0  0  0  0  0  0  0  0
    8.3138   -4.8000    0.0000 C   0  0  0  0  0  0  0  0  0  0  0  0
    6.9282   -4.0000    0.0000 C   0  0  0  0  0  0  0  0  0  0  0  0
   11.0851   -4.8000    0.0000 C   0  0  0  0  0  0  0  0  0  0  0  0
   12.4708   -4.0000    0.0000 C   0  0  0  0  0  0  0  0  0  0  0  0
   12.4708   -2.4000    0.0000 C   0  0  0  0  0  0  0  0  0  0  0  0
   13.8564   -1.6000    0.0000 C   0  0  0  0  0  0  0  0  0  0  0  0
   15.2420   -2.4000    0.0000 C   0  0  0  0  0  0  0  0  0  0  0  0
   15.2420   -4.0000    0.0000 C   0  0  0  0  0  0  0  0  0  0  0  0
   13.8564   -4.8000    0.0000 C   0  0  0  0  0  0  0  0  0  0  0  0
   16.7637   -4.4944    0.0000 O   0  0  0  0  0  0  0  0  0  0  0  0
   17.7042   -3.2000    0.0000 C   0  0  0  0  0  0  0  0  0  0  0  0
   16.7637   -1.9056    0.0000 O   0  0  0  0  0  0  0  0  0  0  0  0
   11.0851   -1.6000    0.0000 Cl  0  0  0  0  0  0  0  0  0  0  0  0
  1  2  1  0  0  0  0
  1  6  2  0  0  0  0
  2  3  2  0  0  0  0
  2 12  1  0  0  0  0
  3  4  1  0  0  0  0
  4  5  2  0  0  0  0
  5  6  1  0  0  0  0
  5 10  1  0  0  0  0
  6  7  1  0  0  0  0
  7  8  1  0  0  0  0
  8  9  2  0  0  0  0
  8 13  1  0  0  0  0
  9 10  1  0  0  0  0
 10 11  2  0  0  0  0
 13 14  1  0  0  0  0
 13 16  2  0  0  0  0
 15 14  1  1  0  0  0
 15 17  1  0  0  0  0
 15 21  1  0  0  0  0
 17 18  1  0  0  0  0
 18 19  1  0  0  0  0
 19 20  1  0  0  0  0
 19 22  1  6  0  0  0
 20 21  1  0  0  0  0
 22 23  1  0  0  0  0
 23 24  1  0  0  0  0
 23 28  2  0  0  0  0
 24 25  2  0  0  0  0
 24 32  1  0  0  0  0
 25 26  1  0  0  0  0
 26 27  2  0  0  0  0
 26 31  1  0  0  0  0
 27 28  1  0  0  0  0
 27 29  1  0  0  0  0
 29 30  1  0  0  0  0
 30 31  1  0  0  0  0
M  END
> <Acceptable>
false

> <IC50>
13.5

$$$$

Generated by Molecular Materials Informatics

 32 36  0  0  0  0  0  0  0  0999 V2000
   -1.3856   -2.4000    0.0000 C   0  0  0  0  0  0  0  0  0  0  0  0
   -2.7713   -1.6000    0.0000 C   0  0  0  0  0  0  0  0  0  0  0  0
   -2.7713    0.0000    0.0000 C   0  0  0  0  0  0  0  0  0  0  0  0
   -1.3856    0.8000    0.0000 C   0  0  0  0  0  0  0  0  0  0  0  0
    0.0000    0.0000    0.0000 C   0  0  0  0  0  0  0  0  0  0  0  0
    0.0000   -1.6000    0.0000 C   0  0  0  0  0  0  0  0  0  0  0  0
    1.3856   -2.4000    0.0000 O   0  0  0  0  0  0  0  0  0  0  0  0
    2.7713   -1.6000    0.0000 C   0  0  0  0  0  0  0  0  0  0  0  0
    2.7713    0.0000    0.0000 C   0  0  0  0  0  0  0  0  0  0  0  0
    1.3856    0.8000    0.0000 C   0  0  0  0  0  0  0  0  0  0  0  0
    1.3856    2.4000    0.0000 O   0  0  0  0  0  0  0  0  0  0  0  0
   -4.1569   -2.4000    0.0000 F   0  0  0  0  0  0  0  0  0  0  0  0
    4.1569   -2.4000    0.0000 C   0  0  0  0  0  0  0  0  0  0  0  0
    5.5426   -1.6000    0.0000 N   0  0  0  0  0  0  0  0  0  0  0  0
    6.9282   -2.4000    0.0000 C   0  0  0  0  0  0  0  0  0  0  0  0
    4.1569   -4.0000    0.0000 O   0  0  0  0  0  0  0  0  0  0  0  0
    8.3138   -1.6000    0.0000 C   0  0  0  0  0  0  0  0  0  0  0  0
    9.6995   -2.4000    0.0000 C   0  0  0  0  0  0  0  0  0  0  0  0
    9.6995   -4.0000    0.0000 N   0  0  0  0  0  0  0  0  0  0  0  0
    8.3138   -4.8000    0.0000 C   0  0  0  0  0  0  0  0  0  0  0  0
    6.9282   -4.0000    0.0000 C   0  0  0  0  0  0  0  0  0  0  0  0
   11.0851   -4.8000    0.0000 C   0  0  0  0  0  0  0  0  0  0  0  0
   12.4708   -4.0000    0.0000 C   0  0  0  0  0  0  0  0  0  0  0  0
   12.4708   -2.4000    0.0000 C   0  0  0  0  0  0  0  0  0  0  0  0
   13.8564   -1.6000    0.0000 C   0  0  0  0  0  0  0  0  0  0  0  0
   15.2420   -2.4000    0.0000 C   0  0  0  0  0  0  0  0  0  0  0  0
   15.2420   -4.0000    0.0000 C   0  0  0  0  0  0  0  0  0  0  0  0
   13.8564   -4.8000    0.0000 C   0  0  0  0  0  0  0  0  0  0  0  0
   16.6277   -4.8000    0.0000 O   0  0  0  0  0  0  0  0  0  0  0  0
   16.6277   -1.6000    0.0000 O   0  0  0  0  0  0  0  0  0  0  0  0
   18.0133   -4.0000    0.0000 C   0  0  0  0  0  0  0  0  0  0  0  0
   18.0133   -2.4000    0.0000 C   0  0  0  0  0  0  0  0  0  0  0  0
  1  2  1  0  0  0  0
  1  6  2  0  0  0  0
  2  3  2  0  0  0  0
  2 12  1  0  0  0  0
  3  4  1  0  0  0  0
  4  5  2  0  0  0  0
  5  6  1  0  0  0  0
  5 10  1  0  0  0  0
  6  7  1  0  0  0  0
  7  8  1  0  0  0  0
  8  9  2  0  0  0  0
  8 13  1  0  0  0  0
  9 10  1  0  0  0  0
 10 11  2  0  0  0  0
 13 14  1  0  0  0  0
 13 16  2  0  0  0  0
 15 14  1  1  0  0  0
 15 17  1  0  0  0  0
 15 21  1  0  0  0  0
 17 18  1  0  0  0  0
 18 19  1  0  0  0  0
 19 20  1  0  0  0  0
 19 22  1  6  0  0  0
 20 21  1  0  0  0  0
 22 23  1  0  0  0  0
 23 24  1  0  0  0  0
 23 28  2  0  0  0  0
 24 25  2  0  0  0  0
 25 26  1  0  0  0  0
 26 27  2  0  0  0  0
 26 30  1  0  0  0  0
 27 28  1  0  0  0  0
 27 29  1  0  0  0  0
 29 31  1  0  0  0  0
 30 32  1  0  0  0  0
 31 32  1  0  0  0  0
M  END
> <Acceptable>
false

> <IC50>
12.2

$$$$

Generated by Molecular Materials Informatics

 30 33  0  0  0  0  0  0  0  0999 V2000
   -1.3856   -2.4000    0.0000 C   0  0  0  0  0  0  0  0  0  0  0  0
   -2.7713   -1.6000    0.0000 C   0  0  0  0  0  0  0  0  0  0  0  0
   -2.7713    0.0000    0.0000 C   0  0  0  0  0  0  0  0  0  0  0  0
   -1.3856    0.8000    0.0000 C   0  0  0  0  0  0  0  0  0  0  0  0
    0.0000    0.0000    0.0000 C   0  0  0  0  0  0  0  0  0  0  0  0
    0.0000   -1.6000    0.0000 C   0  0  0  0  0  0  0  0  0  0  0  0
    1.3856   -2.4000    0.0000 O   0  0  0  0  0  0  0  0  0  0  0  0
    2.7713   -1.6000    0.0000 C   0  0  0  0  0  0  0  0  0  0  0  0
    2.7713    0.0000    0.0000 C   0  0  0  0  0  0  0  0  0  0  0  0
    1.3856    0.8000    0.0000 C   0  0  0  0  0  0  0  0  0  0  0  0
    1.3856    2.4000    0.0000 O   0  0  0  0  0  0  0  0  0  0  0  0
   -4.1569   -2.4000    0.0000 F   0  0  0  0  0  0  0  0  0  0  0  0
    4.1569   -2.4000    0.0000 C   0  0  0  0  0  0  0  0  0  0  0  0
    5.5426   -1.6000    0.0000 N   0  0  0  0  0  0  0  0  0  0  0  0
    6.9282   -2.4000    0.0000 C   0  0  0  0  0  0  0  0  0  0  0  0
    4.1569   -4.0000    0.0000 O   0  0  0  0  0  0  0  0  0  0  0  0
    8.3138   -1.6000    0.0000 C   0  0  0  0  0  0  0  0  0  0  0  0
    9.6995   -2.4000    0.0000 C   0  0  0  0  0  0  0  0  0  0  0  0
    9.6995   -4.0000    0.0000 N   0  0  0  0  0  0  0  0  0  0  0  0
    8.3138   -4.8000    0.0000 C   0  0  0  0  0  0  0  0  0  0  0  0
    6.9282   -4.0000    0.0000 C   0  0  0  0  0  0  0  0  0  0  0  0
   11.0851   -4.8000    0.0000 C   0  0  0  0  0  0  0  0  0  0  0  0
   12.4708   -4.0000    0.0000 C   0  0  0  0  0  0  0  0  0  0  0  0
   12.4708   -2.4000    0.0000 C   0  0  0  0  0  0  0  0  0  0  0  0
   13.8564   -1.6000    0.0000 C   0  0  0  0  0  0  0  0  0  0  0  0
   15.2420   -2.4000    0.0000 C   0  0  0  0  0  0  0  0  0  0  0  0
   15.2420   -4.0000    0.0000 C   0  0  0  0  0  0  0  0  0  0  0  0
   13.8564   -4.8000    0.0000 C   0  0  0  0  0  0  0  0  0  0  0  0
   16.6277   -4.8000    0.0000 O   0  0  0  0  0  0  0  0  0  0  0  0
   18.0133   -4.0000    0.0000 C   0  0  0  0  0  0  0  0  0  0  0  0
  1  2  1  0  0  0  0
  1  6  2  0  0  0  0
  2  3  2  0  0  0  0
  2 12  1  0  0  0  0
  3  4  1  0  0  0  0
  4  5  2  0  0  0  0
  5  6  1  0  0  0  0
  5 10  1  0  0  0  0
  6  7  1  0  0  0  0
  7  8  1  0  0  0  0
  8  9  2  0  0  0  0
  8 13  1  0  0  0  0
  9 10  1  0  0  0  0
 10 11  2  0  0  0  0
 13 14  1  0  0  0  0
 13 16  2  0  0  0  0
 15 14  1  1  0  0  0
 15 17  1  0  0  0  0
 15 21  1  0  0  0  0
 17 18  1  0  0  0  0
 18 19  1  0  0  0  0
 19 20  1  0  0  0  0
 19 22  1  6  0  0  0
 20 21  1  0  0  0  0
 22 23  1  0  0  0  0
 23 24  1  0  0  0  0
 23 28  2  0  0  0  0
 24 25  2  0  0  0  0
 25 26  1  0  0  0  0
 26 27  2  0  0  0  0
 27 28  1  0  0  0  0
 27 29  1  0  0  0  0
 29 30  1  0  0  0  0
M  END
> <Acceptable>
false

> <IC50>
10.4

$$$$

Generated by Molecular Materials Informatics

 30 33  0  0  0  0  0  0  0  0999 V2000
   -1.3856   -2.4000    0.0000 C   0  0  0  0  0  0  0  0  0  0  0  0
   -2.7713   -1.6000    0.0000 C   0  0  0  0  0  0  0  0  0  0  0  0
   -2.7713    0.0000    0.0000 C   0  0  0  0  0  0  0  0  0  0  0  0
   -1.3856    0.8000    0.0000 C   0  0  0  0  0  0  0  0  0  0  0  0
    0.0000    0.0000    0.0000 C   0  0  0  0  0  0  0  0  0  0  0  0
    0.0000   -1.6000    0.0000 C   0  0  0  0  0  0  0  0  0  0  0  0
    1.3856   -2.4000    0.0000 O   0  0  0  0  0  0  0  0  0  0  0  0
    2.7713   -1.6000    0.0000 C   0  0  0  0  0  0  0  0  0  0  0  0
    2.7713    0.0000    0.0000 C   0  0  0  0  0  0  0  0  0  0  0  0
    1.3856    0.8000    0.0000 C   0  0  0  0  0  0  0  0  0  0  0  0
    1.3856    2.4000    0.0000 O   0  0  0  0  0  0  0  0  0  0  0  0
   -4.1569   -2.4000    0.0000 F   0  0  0  0  0  0  0  0  0  0  0  0
    4.1569   -2.4000    0.0000 C   0  0  0  0  0  0  0  0  0  0  0  0
    5.5426   -1.6000    0.0000 N   0  0  0  0  0  0  0  0  0  0  0  0
    6.9282   -2.4000    0.0000 C   0  0  0  0  0  0  0  0  0  0  0  0
    4.1569   -4.0000    0.0000 O   0  0  0  0  0  0  0  0  0  0  0  0
    8.3138   -1.6000    0.0000 C   0  0  0  0  0  0  0  0  0  0  0  0
    9.6995   -2.4000    0.0000 C   0  0  0  0  0  0  0  0  0  0  0  0
    9.6995   -4.0000    0.0000 N   0  0  0  0  0  0  0  0  0  0  0  0
    8.3138   -4.8000    0.0000 C   0  0  0  0  0  0  0  0  0  0  0  0
    6.9282   -4.0000    0.0000 C   0  0  0  0  0  0  0  0  0  0  0  0
   11.0851   -4.8000    0.0000 C   0  0  0  0  0  0  0  0  0  0  0  0
   12.4708   -4.0000    0.0000 C   0  0  0  0  0  0  0  0  0  0  0  0
   12.4708   -2.4000    0.0000 C   0  0  0  0  0  0  0  0  0  0  0  0
   13.8564   -1.6000    0.0000 C   0  0  0  0  0  0  0  0  0  0  0  0
   15.2420   -2.4000    0.0000 C   0  0  0  0  0  0  0  0  0  0  0  0
   15.2420   -4.0000    0.0000 C   0  0  0  0  0  0  0  0  0  0  0  0
   13.8564   -4.8000    0.0000 C   0  0  0  0  0  0  0  0  0  0  0  0
   16.6277   -1.6000    0.0000 O   0  0  0  0  0  0  0  0  0  0  0  0
   18.0133   -2.4000    0.0000 C   0  0  0  0  0  0  0  0  0  0  0  0
  1  2  1  0  0  0  0
  1  6  2  0  0  0  0
  2  3  2  0  0  0  0
  2 12  1  0  0  0  0
  3  4  1  0  0  0  0
  4  5  2  0  0  0  0
  5  6  1  0  0  0  0
  5 10  1  0  0  0  0
  6  7  1  0  0  0  0
  7  8  1  0  0  0  0
  8  9  2  0  0  0  0
  8 13  1  0  0  0  0
  9 10  1  0  0  0  0
 10 11  2  0  0  0  0
 13 14  1  0  0  0  0
 13 16  2  0  0  0  0
 15 14  1  1  0  0  0
 15 17  1  0  0  0  0
 15 21  1  0  0  0  0
 17 18  1  0  0  0  0
 18 19  1  0  0  0  0
 19 20  1  0  0  0  0
 19 22  1  6  0  0  0
 20 21  1  0  0  0  0
 22 23  1  0  0  0  0
 23 24  1  0  0  0  0
 23 28  2  0  0  0  0
 24 25  2  0  0  0  0
 25 26  1  0  0  0  0
 26 27  2  0  0  0  0
 26 29  1  0  0  0  0
 27 28  1  0  0  0  0
 29 30  1  0  0  0  0
M  END
> <Acceptable>
false

> <IC50>
5.4

$$$$

Generated by Molecular Materials Informatics

 29 32  0  0  0  0  0  0  0  0999 V2000
   -1.3856   -2.4000    0.0000 C   0  0  0  0  0  0  0  0  0  0  0  0
   -2.7713   -1.6000    0.0000 C   0  0  0  0  0  0  0  0  0  0  0  0
   -2.7713    0.0000    0.0000 C   0  0  0  0  0  0  0  0  0  0  0  0
   -1.3856    0.8000    0.0000 C   0  0  0  0  0  0  0  0  0  0  0  0
    0.0000    0.0000    0.0000 C   0  0  0  0  0  0  0  0  0  0  0  0
    0.0000   -1.6000    0.0000 C   0  0  0  0  0  0  0  0  0  0  0  0
    1.3856   -2.4000    0.0000 O   0  0  0  0  0  0  0  0  0  0  0  0
    2.7713   -1.6000    0.0000 C   0  0  0  0  0  0  0  0  0  0  0  0
    2.7713    0.0000    0.0000 C   0  0  0  0  0  0  0  0  0  0  0  0
    1.3856    0.8000    0.0000 C   0  0  0  0  0  0  0  0  0  0  0  0
    1.3856    2.4000    0.0000 O   0  0  0  0  0  0  0  0  0  0  0  0
   -4.1569   -2.4000    0.0000 F   0  0  0  0  0  0  0  0  0  0  0  0
    4.1569   -2.4000    0.0000 C   0  0  0  0  0  0  0  0  0  0  0  0
    5.5426   -1.6000    0.0000 N   0  0  0  0  0  0  0  0  0  0  0  0
    6.9282   -2.4000    0.0000 C   0  0  0  0  0  0  0  0  0  0  0  0
    4.1569   -4.0000    0.0000 O   0  0  0  0  0  0  0  0  0  0  0  0
    8.3138   -1.6000    0.0000 C   0  0  0  0  0  0  0  0  0  0  0  0
    9.6995   -2.4000    0.0000 C   0  0  0  0  0  0  0  0  0  0  0  0
    9.6995   -4.0000    0.0000 N   0  0  0  0  0  0  0  0  0  0  0  0
    8.3138   -4.8000    0.0000 C   0  0  0  0  0  0  0  0  0  0  0  0
    6.9282   -4.0000    0.0000 C   0  0  0  0  0  0  0  0  0  0  0  0
   11.0851   -4.8000    0.0000 C   0  0  0  0  0  0  0  0  0  0  0  0
   12.4708   -4.0000    0.0000 C   0  0  0  0  0  0  0  0  0  0  0  0
   12.4708   -2.4000    0.0000 C   0  0  0  0  0  0  0  0  0  0  0  0
   13.8564   -1.6000    0.0000 C   0  0  0  0  0  0  0  0  0  0  0  0
   15.2420   -2.4000    0.0000 C   0  0  0  0  0  0  0  0  0  0  0  0
   15.2420   -4.0000    0.0000 C   0  0  0  0  0  0  0  0  0  0  0  0
   13.8564   -4.8000    0.0000 C   0  0  0  0  0  0  0  0  0  0  0  0
   16.6277   -4.8000    0.0000 F   0  0  0  0  0  0  0  0  0  0  0  0
  1  2  1  0  0  0  0
  1  6  2  0  0  0  0
  2  3  2  0  0  0  0
  2 12  1  0  0  0  0
  3  4  1  0  0  0  0
  4  5  2  0  0  0  0
  5  6  1  0  0  0  0
  5 10  1  0  0  0  0
  6  7  1  0  0  0  0
  7  8  1  0  0  0  0
  8  9  2  0  0  0  0
  8 13  1  0  0  0  0
  9 10  1  0  0  0  0
 10 11  2  0  0  0  0
 13 14  1  0  0  0  0
 13 16  2  0  0  0  0
 15 14  1  1  0  0  0
 15 17  1  0  0  0  0
 15 21  1  0  0  0  0
 17 18  1  0  0  0  0
 18 19  1  0  0  0  0
 19 20  1  0  0  0  0
 19 22  1  6  0  0  0
 20 21  1  0  0  0  0
 22 23  1  0  0  0  0
 23 24  1  0  0  0  0
 23 28  2  0  0  0  0
 24 25  2  0  0  0  0
 25 26  1  0  0  0  0
 26 27  2  0  0  0  0
 27 28  1  0  0  0  0
 27 29  1  0  0  0  0
M  END
> <Acceptable>
false

> <IC50>
21.2

$$$$

Generated by Molecular Materials Informatics

 31 34  0  0  0  0  0  0  0  0999 V2000
   -1.3856   -2.4000    0.0000 C   0  0  0  0  0  0  0  0  0  0  0  0
   -2.7713   -1.6000    0.0000 C   0  0  0  0  0  0  0  0  0  0  0  0
   -2.7713    0.0000    0.0000 C   0  0  0  0  0  0  0  0  0  0  0  0
   -1.3856    0.8000    0.0000 C   0  0  0  0  0  0  0  0  0  0  0  0
    0.0000    0.0000    0.0000 C   0  0  0  0  0  0  0  0  0  0  0  0
    0.0000   -1.6000    0.0000 C   0  0  0  0  0  0  0  0  0  0  0  0
    1.3856   -2.4000    0.0000 O   0  0  0  0  0  0  0  0  0  0  0  0
    2.7713   -1.6000    0.0000 C   0  0  0  0  0  0  0  0  0  0  0  0
    2.7713    0.0000    0.0000 C   0  0  0  0  0  0  0  0  0  0  0  0
    1.3856    0.8000    0.0000 C   0  0  0  0  0  0  0  0  0  0  0  0
    1.3856    2.4000    0.0000 O   0  0  0  0  0  0  0  0  0  0  0  0
   -4.1569   -2.4000    0.0000 F   0  0  0  0  0  0  0  0  0  0  0  0
    4.1569   -2.4000    0.0000 C   0  0  0  0  0  0  0  0  0  0  0  0
    5.5426   -1.6000    0.0000 N   0  0  0  0  0  0  0  0  0  0  0  0
    6.9282   -2.4000    0.0000 C   0  0  0  0  0  0  0  0  0  0  0  0
    4.1569   -4.0000    0.0000 O   0  0  0  0  0  0  0  0  0  0  0  0
    8.3138   -1.6000    0.0000 C   0  0  0  0  0  0  0  0  0  0  0  0
    9.6995   -2.4000    0.0000 C   0  0  0  0  0  0  0  0  0  0  0  0
    9.6995   -4.0000    0.0000 N   0  0  0  0  0  0  0  0  0  0  0  0
    8.3138   -4.8000    0.0000 C   0  0  0  0  0  0  0  0  0  0  0  0
    6.9282   -4.0000    0.0000 C   0  0  0  0  0  0  0  0  0  0  0  0
   11.0851   -4.8000    0.0000 C   0  0  0  0  0  0  0  0  0  0  0  0
   12.4708   -4.0000    0.0000 C   0  0  0  0  0  0  0  0  0  0  0  0
   12.4708   -2.4000    0.0000 C   0  0  0  0  0  0  0  0  0  0  0  0
   13.8564   -1.6000    0.0000 C   0  0  0  0  0  0  0  0  0  0  0  0
   15.2420   -2.4000    0.0000 C   0  0  0  0  0  0  0  0  0  0  0  0
   15.2420   -4.0000    0.0000 C   0  0  0  0  0  0  0  0  0  0  0  0
   13.8564   -4.8000    0.0000 C   0  0  0  0  0  0  0  0  0  0  0  0
   13.8564   -6.4000    0.0000 F   0  0  0  0  0  0  0  0  0  0  0  0
   16.6277   -1.6000    0.0000 O   0  0  0  0  0  0  0  0  0  0  0  0
   18.0133   -2.4000    0.0000 C   0  0  0  0  0  0  0  0  0  0  0  0
  1  2  1  0  0  0  0
  1  6  2  0  0  0  0
  2  3  2  0  0  0  0
  2 12  1  0  0  0  0
  3  4  1  0  0  0  0
  4  5  2  0  0  0  0
  5  6  1  0  0  0  0
  5 10  1  0  0  0  0
  6  7  1  0  0  0  0
  7  8  1  0  0  0  0
  8  9  2  0  0  0  0
  8 13  1  0  0  0  0
  9 10  1  0  0  0  0
 10 11  2  0  0  0  0
 13 14  1  0  0  0  0
 13 16  2  0  0  0  0
 15 14  1  1  0  0  0
 15 17  1  0  0  0  0
 15 21  1  0  0  0  0
 17 18  1  0  0  0  0
 18 19  1  0  0  0  0
 19 20  1  0  0  0  0
 19 22  1  6  0  0  0
 20 21  1  0  0  0  0
 22 23  1  0  0  0  0
 23 24  1  0  0  0  0
 23 28  2  0  0  0  0
 24 25  2  0  0  0  0
 25 26  1  0  0  0  0
 26 27  2  0  0  0  0
 26 30  1  0  0  0  0
 27 28  1  0  0  0  0
 28 29  1  0  0  0  0
 30 31  1  0  0  0  0
M  END
> <Acceptable>
false

> <IC50>
14.7

$$$$

Generated by Molecular Materials Informatics

 31 34  0  0  0  0  0  0  0  0999 V2000
   -1.3856   -2.4000    0.0000 C   0  0  0  0  0  0  0  0  0  0  0  0
   -2.7713   -1.6000    0.0000 C   0  0  0  0  0  0  0  0  0  0  0  0
   -2.7713    0.0000    0.0000 C   0  0  0  0  0  0  0  0  0  0  0  0
   -1.3856    0.8000    0.0000 C   0  0  0  0  0  0  0  0  0  0  0  0
    0.0000    0.0000    0.0000 C   0  0  0  0  0  0  0  0  0  0  0  0
    0.0000   -1.6000    0.0000 C   0  0  0  0  0  0  0  0  0  0  0  0
    1.3856   -2.4000    0.0000 O   0  0  0  0  0  0  0  0  0  0  0  0
    2.7713   -1.6000    0.0000 C   0  0  0  0  0  0  0  0  0  0  0  0
    2.7713    0.0000    0.0000 C   0  0  0  0  0  0  0  0  0  0  0  0
    1.3856    0.8000    0.0000 C   0  0  0  0  0  0  0  0  0  0  0  0
    1.3856    2.4000    0.0000 O   0  0  0  0  0  0  0  0  0  0  0  0
   -4.1569   -2.4000    0.0000 F   0  0  0  0  0  0  0  0  0  0  0  0
    4.1569   -2.4000    0.0000 C   0  0  0  0  0  0  0  0  0  0  0  0
    5.5426   -1.6000    0.0000 N   0  0  0  0  0  0  0  0  0  0  0  0
    6.9282   -2.4000    0.0000 C   0  0  0  0  0  0  0  0  0  0  0  0
    4.1569   -4.0000    0.0000 O   0  0  0  0  0  0  0  0  0  0  0  0
    8.3138   -1.6000    0.0000 C   0  0  0  0  0  0  0  0  0  0  0  0
    9.6995   -2.4000    0.0000 C   0  0  0  0  0  0  0  0  0  0  0  0
    9.6995   -4.0000    0.0000 N   0  0  0  0  0  0  0  0  0  0  0  0
    8.3138   -4.8000    0.0000 C   0  0  0  0  0  0  0  0  0  0  0  0
    6.9282   -4.0000    0.0000 C   0  0  0  0  0  0  0  0  0  0  0  0
   11.0851   -4.8000    0.0000 C   0  0  0  0  0  0  0  0  0  0  0  0
   12.4708   -4.0000    0.0000 C   0  0  0  0  0  0  0  0  0  0  0  0
   12.4708   -2.4000    0.0000 C   0  0  0  0  0  0  0  0  0  0  0  0
   13.8564   -1.6000    0.0000 C   0  0  0  0  0  0  0  0  0  0  0  0
   15.2420   -2.4000    0.0000 C   0  0  0  0  0  0  0  0  0  0  0  0
   15.2420   -4.0000    0.0000 C   0  0  0  0  0  0  0  0  0  0  0  0
   13.8564   -4.8000    0.0000 C   0  0  0  0  0  0  0  0  0  0  0  0
   16.6277   -1.6000    0.0000 O   0  0  0  0  0  0  0  0  0  0  0  0
   16.6277    0.0000    0.0000 C   0  0  0  0  0  0  0  0  0  0  0  0
   16.6277   -4.8000    0.0000 F   0  0  0  0  0  0  0  0  0  0  0  0
  1  2  1  0  0  0  0
  1  6  2  0  0  0  0
  2  3  2  0  0  0  0
  2 12  1  0  0  0  0
  3  4  1  0  0  0  0
  4  5  2  0  0  0  0
  5  6  1  0  0  0  0
  5 10  1  0  0  0  0
  6  7  1  0  0  0  0
  7  8  1  0  0  0  0
  8  9  2  0  0  0  0
  8 13  1  0  0  0  0
  9 10  1  0  0  0  0
 10 11  2  0  0  0  0
 13 14  1  0  0  0  0
 13 16  2  0  0  0  0
 15 14  1  1  0  0  0
 15 17  1  0  0  0  0
 15 21  1  0  0  0  0
 17 18  1  0  0  0  0
 18 19  1  0  0  0  0
 19 20  1  0  0  0  0
 19 22  1  6  0  0  0
 20 21  1  0  0  0  0
 22 23  1  0  0  0  0
 23 24  1  0  0  0  0
 23 28  2  0  0  0  0
 24 25  2  0  0  0  0
 25 26  1  0  0  0  0
 26 27  2  0  0  0  0
 26 29  1  0  0  0  0
 27 28  1  0  0  0  0
 27 31  1  0  0  0  0
 29 30  1  0  0  0  0
M  END
> <Acceptable>
false

> <IC50>
8.5

$$$$

Generated by Molecular Materials Informatics

 31 34  0  0  0  0  0  0  0  0999 V2000
   -1.3856   -2.4000    0.0000 C   0  0  0  0  0  0  0  0  0  0  0  0
   -2.7713   -1.6000    0.0000 C   0  0  0  0  0  0  0  0  0  0  0  0
   -2.7713    0.0000    0.0000 C   0  0  0  0  0  0  0  0  0  0  0  0
   -1.3856    0.8000    0.0000 C   0  0  0  0  0  0  0  0  0  0  0  0
    0.0000    0.0000    0.0000 C   0  0  0  0  0  0  0  0  0  0  0  0
    0.0000   -1.6000    0.0000 C   0  0  0  0  0  0  0  0  0  0  0  0
    1.3856   -2.4000    0.0000 O   0  0  0  0  0  0  0  0  0  0  0  0
    2.7713   -1.6000    0.0000 C   0  0  0  0  0  0  0  0  0  0  0  0
    2.7713    0.0000    0.0000 C   0  0  0  0  0  0  0  0  0  0  0  0
    1.3856    0.8000    0.0000 C   0  0  0  0  0  0  0  0  0  0  0  0
    1.3856    2.4000    0.0000 O   0  0  0  0  0  0  0  0  0  0  0  0
   -4.1569   -2.4000    0.0000 F   0  0  0  0  0  0  0  0  0  0  0  0
    4.1569   -2.4000    0.0000 C   0  0  0  0  0  0  0  0  0  0  0  0
    5.5426   -1.6000    0.0000 N   0  0  0  0  0  0  0  0  0  0  0  0
    6.9282   -2.4000    0.0000 C   0  0  0  0  0  0  0  0  0  0  0  0
    4.1569   -4.0000    0.0000 O   0  0  0  0  0  0  0  0  0  0  0  0
    8.3138   -1.6000    0.0000 C   0  0  0  0  0  0  0  0  0  0  0  0
    9.6995   -2.4000    0.0000 C   0  0  0  0  0  0  0  0  0  0  0  0
    9.6995   -4.0000    0.0000 N   0  0  0  0  0  0  0  0  0  0  0  0
    8.3138   -4.8000    0.0000 C   0  0  0  0  0  0  0  0  0  0  0  0
    6.9282   -4.0000    0.0000 C   0  0  0  0  0  0  0  0  0  0  0  0
   11.0851   -4.8000    0.0000 C   0  0  0  0  0  0  0  0  0  0  0  0
   12.4708   -4.0000    0.0000 C   0  0  0  0  0  0  0  0  0  0  0  0
   12.4708   -2.4000    0.0000 C   0  0  0  0  0  0  0  0  0  0  0  0
   13.8564   -1.6000    0.0000 C   0  0  0  0  0  0  0  0  0  0  0  0
   15.2420   -2.4000    0.0000 C   0  0  0  0  0  0  0  0  0  0  0  0
   15.2420   -4.0000    0.0000 C   0  0  0  0  0  0  0  0  0  0  0  0
   13.8564   -4.8000    0.0000 C   0  0  0  0  0  0  0  0  0  0  0  0
   16.6277   -1.6000    0.0000 C   0  0  0  0  0  0  0  0  0  0  0  0
   16.6277    0.0000    0.0000 C   0  0  0  0  0  0  0  0  0  0  0  0
   18.0133   -2.4000    0.0000 O   0  0  0  0  0  0  0  0  0  0  0  0
  1  2  1  0  0  0  0
  1  6  2  0  0  0  0
  2  3  2  0  0  0  0
  2 12  1  0  0  0  0
  3  4  1  0  0  0  0
  4  5  2  0  0  0  0
  5  6  1  0  0  0  0
  5 10  1  0  0  0  0
  6  7  1  0  0  0  0
  7  8  1  0  0  0  0
  8  9  2  0  0  0  0
  8 13  1  0  0  0  0
  9 10  1  0  0  0  0
 10 11  2  0  0  0  0
 13 14  1  0  0  0  0
 13 16  2  0  0  0  0
 15 14  1  1  0  0  0
 15 17  1  0  0  0  0
 15 21  1  0  0  0  0
 17 18  1  0  0  0  0
 18 19  1  0  0  0  0
 19 20  1  0  0  0  0
 19 22  1  6  0  0  0
 20 21  1  0  0  0  0
 22 23  1  0  0  0  0
 23 24  1  0  0  0  0
 23 28  2  0  0  0  0
 24 25  2  0  0  0  0
 25 26  1  0  0  0  0
 26 27  2  0  0  0  0
 26 29  1  0  0  0  0
 27 28  1  0  0  0  0
 29 30  1  0  0  0  0
 29 31  2  0  0  0  0
M  END
> <Acceptable>
false

> <IC50>
20.3

$$$$

Generated by Molecular Materials Informatics

 32 35  0  0  0  0  0  0  0  0999 V2000
   -1.3856   -2.4000    0.0000 C   0  0  0  0  0  0  0  0  0  0  0  0
   -2.7713   -1.6000    0.0000 C   0  0  0  0  0  0  0  0  0  0  0  0
   -2.7713    0.0000    0.0000 C   0  0  0  0  0  0  0  0  0  0  0  0
   -1.3856    0.8000    0.0000 C   0  0  0  0  0  0  0  0  0  0  0  0
    0.0000    0.0000    0.0000 C   0  0  0  0  0  0  0  0  0  0  0  0
    0.0000   -1.6000    0.0000 C   0  0  0  0  0  0  0  0  0  0  0  0
    1.3856   -2.4000    0.0000 O   0  0  0  0  0  0  0  0  0  0  0  0
    2.7713   -1.6000    0.0000 C   0  0  0  0  0  0  0  0  0  0  0  0
    2.7713    0.0000    0.0000 C   0  0  0  0  0  0  0  0  0  0  0  0
    1.3856    0.8000    0.0000 C   0  0  0  0  0  0  0  0  0  0  0  0
    1.3856    2.4000    0.0000 O   0  0  0  0  0  0  0  0  0  0  0  0
   -4.1569   -2.4000    0.0000 F   0  0  0  0  0  0  0  0  0  0  0  0
    4.1569   -2.4000    0.0000 C   0  0  0  0  0  0  0  0  0  0  0  0
    5.5426   -1.6000    0.0000 N   0  0  0  0  0  0  0  0  0  0  0  0
    6.9282   -2.4000    0.0000 C   0  0  0  0  0  0  0  0  0  0  0  0
    4.1569   -4.0000    0.0000 O   0  0  0  0  0  0  0  0  0  0  0  0
    8.3138   -1.6000    0.0000 C   0  0  0  0  0  0  0  0  0  0  0  0
    9.6995   -2.4000    0.0000 C   0  0  0  0  0  0  0  0  0  0  0  0
    9.6995   -4.0000    0.0000 N   0  0  0  0  0  0  0  0  0  0  0  0
    8.3138   -4.8000    0.0000 C   0  0  0  0  0  0  0  0  0  0  0  0
    6.9282   -4.0000    0.0000 C   0  0  0  0  0  0  0  0  0  0  0  0
   11.0851   -4.8000    0.0000 C   0  0  0  0  0  0  0  0  0  0  0  0
   12.4708   -4.0000    0.0000 C   0  0  0  0  0  0  0  0  0  0  0  0
   12.4708   -2.4000    0.0000 C   0  0  0  0  0  0  0  0  0  0  0  0
   13.8564   -1.6000    0.0000 C   0  0  0  0  0  0  0  0  0  0  0  0
   15.2420   -2.4000    0.0000 C   0  0  0  0  0  0  0  0  0  0  0  0
   15.2420   -4.0000    0.0000 C   0  0  0  0  0  0  0  0  0  0  0  0
   13.8564   -4.8000    0.0000 C   0  0  0  0  0  0  0  0  0  0  0  0
   18.0133   -2.4000    0.0000 C   0  0  0  0  0  0  0  0  0  0  0  0
   18.0133   -4.0000    0.0000 C   0  0  0  0  0  0  0  0  0  0  0  0
   19.3990   -1.6000    0.0000 O   0  0  0  0  0  0  0  0  0  0  0  0
   16.6277   -1.6000    0.0000 N   0  0  0  0  0  0  0  0  0  0  0  0
  1  2  1  0  0  0  0
  1  6  2  0  0  0  0
  2  3  2  0  0  0  0
  2 12  1  0  0  0  0
  3  4  1  0  0  0  0
  4  5  2  0  0  0  0
  5  6  1  0  0  0  0
  5 10  1  0  0  0  0
  6  7  1  0  0  0  0
  7  8  1  0  0  0  0
  8  9  2  0  0  0  0
  8 13  1  0  0  0  0
  9 10  1  0  0  0  0
 10 11  2  0  0  0  0
 13 14  1  0  0  0  0
 13 16  2  0  0  0  0
 15 14  1  1  0  0  0
 15 17  1  0  0  0  0
 15 21  1  0  0  0  0
 17 18  1  0  0  0  0
 18 19  1  0  0  0  0
 19 20  1  0  0  0  0
 19 22  1  6  0  0  0
 20 21  1  0  0  0  0
 22 23  1  0  0  0  0
 23 24  1  0  0  0  0
 23 28  2  0  0  0  0
 24 25  2  0  0  0  0
 25 26  1  0  0  0  0
 26 27  2  0  0  0  0
 26 32  1  0  0  0  0
 27 28  1  0  0  0  0
 29 30  1  0  0  0  0
 29 31  2  0  0  0  0
 29 32  1  0  0  0  0
M  END
> <Acceptable>
true

> <IC50>
47.7

$$$$

Generated by Molecular Materials Informatics

 58 60  0  0  0  0  0  0  0  0999 V2000
   -2.7222   -3.8841    0.0000 O   0  0  0  0  0  0  0  0  0  0  0  0
   -3.2365   -2.3690    0.0000 C   0  0  0  0  0  0  0  0  0  0  0  0
   -2.1816   -1.1661    0.0000 C   0  0  0  0  0  0  0  0  0  0  0  0
   -0.6123   -1.4782    0.0000 C   0  0  0  0  0  0  0  0  0  0  0  0
   -0.6123   -3.0782    0.0000 C   0  0  0  0  0  0  0  0  0  0  0  0
    0.0000   -4.5564    0.0000 C   0  0  0  0  0  0  0  0  0  0  0  0
   -1.3304   -5.4453    0.0000 C   0  0  0  0  0  0  0  0  0  0  0  0
    1.1314   -5.6878    0.0000 C   0  0  0  0  0  0  0  0  0  0  0  0
    0.2425   -7.0181    0.0000 O   0  0  0  0  0  0  0  0  0  0  0  0
    2.6096   -6.3001    0.0000 C   0  0  0  0  0  0  0  0  0  0  0  0
    4.2096   -6.3001    0.0000 C   0  0  0  0  0  0  0  0  0  0  0  0
    5.6878   -5.6878    0.0000 C   0  0  0  0  0  0  0  0  0  0  0  0
    6.8192   -4.5564    0.0000 C   0  0  0  0  0  0  0  0  0  0  0  0
    7.4314   -3.0782    0.0000 C   0  0  0  0  0  0  0  0  0  0  0  0
    7.4315   -1.4782    0.0000 C   0  0  0  0  0  0  0  0  0  0  0  0
    6.8192   -0.0000    0.0000 O   0  0  0  0  0  0  0  0  0  0  0  0
    5.6878    1.1314    0.0000 C   0  0  0  0  0  0  0  0  0  0  0  0
    6.5767    2.4617    0.0000 O   0  0  0  0  0  0  0  0  0  0  0  0
    4.2096    1.7437    0.0000 C   0  0  0  0  0  0  0  0  0  0  0  0
    2.6096    1.7437    0.0000 C   0  0  0  0  0  0  0  0  0  0  0  0
    2.2974    3.3129    0.0000 O   0  0  0  0  0  0  0  0  0  0  0  0
    3.5004    4.3679    0.0000 C   0  0  0  0  0  0  0  0  0  0  0  0
    5.0155    3.8536    0.0000 O   0  0  0  0  0  0  0  0  0  0  0  0
    3.1882    5.9371    0.0000 C   0  0  0  0  0  0  0  0  0  0  0  0
    1.1314    1.1314    0.0000 C   0  0  0  0  0  0  0  0  0  0  0  0
    0.2425    2.4617    0.0000 O   0  0  0  0  0  0  0  0  0  0  0  0
    0.9501    3.8967    0.0000 C   0  0  0  0  0  0  0  0  0  0  0  0
    0.0000    0.0000    0.0000 C   0  0  0  0  0  0  0  0  0  0  0  0
   -1.3304    0.8889    0.0000 O   0  0  0  0  0  0  0  0  0  0  0  0
   -2.8845    1.2692    0.0000 C   0  0  0  0  0  0  0  0  0  0  0  0
   -3.9909    0.1134    0.0000 O   0  0  0  0  0  0  0  0  0  0  0  0
   -5.5451    0.4937    0.0000 C   0  0  0  0  0  0  0  0  0  0  0  0
   -6.6515   -0.6620    0.0000 C   0  0  0  0  0  0  0  0  0  0  0  0
   -5.9928    2.0298    0.0000 C   0  0  0  0  0  0  0  0  0  0  0  0
   -7.5469    2.4101    0.0000 O   0  0  0  0  0  0  0  0  0  0  0  0
   -8.6534    1.2543    0.0000 C   0  0  0  0  0  0  0  0  0  0  0  0
   -8.2056   -0.2818    0.0000 O   0  0  0  0  0  0  0  0  0  0  0  0
   -9.3121   -1.4375    0.0000 C   0  0  0  0  0  0  0  0  0  0  0  0
   -8.8643   -2.9736    0.0000 C   0  0  0  0  0  0  0  0  0  0  0  0
  -10.8662   -1.0572    0.0000 C   0  0  0  0  0  0  0  0  0  0  0  0
  -11.9726   -2.2130    0.0000 O   0  0  0  0  0  0  0  0  0  0  0  0
  -11.5249   -3.7491    0.0000 C   0  0  0  0  0  0  0  0  0  0  0  0
   -9.9708   -4.1294    0.0000 O   0  0  0  0  0  0  0  0  0  0  0  0
  -12.6313   -4.9049    0.0000 C   0  0  0  0  0  0  0  0  0  0  0  0
  -12.1836   -6.4410    0.0000 C   0  0  0  0  0  0  0  0  0  0  0  0
  -10.6294   -6.8213    0.0000 C   0  0  0  0  0  0  0  0  0  0  0  0
  -13.2900   -7.5967    0.0000 C   0  0  0  0  0  0  0  0  0  0  0  0
  -11.3139    0.4788    0.0000 C   0  0  0  0  0  0  0  0  0  0  0  0
  -12.7489   -0.2288    0.0000 O   0  0  0  0  0  0  0  0  0  0  0  0
  -12.2600    1.7692    0.0000 C   0  0  0  0  0  0  0  0  0  0  0  0
  -10.2075    1.6346    0.0000 C   0  0  0  0  0  0  0  0  0  0  0  0
   -4.8864    3.1856    0.0000 C   0  0  0  0  0  0  0  0  0  0  0  0
   -5.3341    4.7217    0.0000 N   0  0  0  0  0  0  0  0  0  0  0  0
   -4.2277    5.8775    0.0000 C   0  0  0  0  0  0  0  0  0  0  0  0
   -6.8882    5.1020    0.0000 C   0  0  0  0  0  0  0  0  0  0  0  0
   -3.3322    2.8053    0.0000 C   0  0  0  0  0  0  0  0  0  0  0  0
   -2.2258    3.9611    0.0000 O   0  0  0  0  0  0  0  0  0  0  0  0
    9.0007   -1.1661    0.0000 C   0  0  0  0  0  0  0  0  0  0  0  0
  1  2  2  0  0  0  0
  2  3  1  0  0  0  0
  4  3  1  6  0  0  0
  4  5  1  0  0  0  0
  4 28  1  0  0  0  0
  5  6  1  0  0  0  0
  6  7  1  6  0  0  0
  6  8  1  0  0  0  0
  8  9  1  6  0  0  0
  8 10  1  0  0  0  0
 10 11  2  0  0  0  0
 11 12  1  0  0  0  0
 12 13  2  0  0  0  0
 13 14  1  0  0  0  0
 14 15  1  0  0  0  0
 15 16  1  0  0  0  0
 15 58  1  6  0  0  0
 16 17  1  0  0  0  0
 17 18  2  0  0  0  0
 17 19  1  0  0  0  0
 19 20  1  0  0  0  0
 20 21  1  6  0  0  0
 20 25  1  0  0  0  0
 21 22  1  0  0  0  0
 22 23  2  0  0  0  0
 22 24  1  0  0  0  0
 25 26  1  6  0  0  0
 25 28  1  0  0  0  0
 26 27  1  0  0  0  0
 28 29  1  1  0  0  0
 30 29  1  1  0  0  0
 30 31  1  0  0  0  0
 30 56  1  0  0  0  0
 31 32  1  0  0  0  0
 32 33  1  6  0  0  0
 32 34  1  0  0  0  0
 34 35  1  6  0  0  0
 34 52  1  0  0  0  0
 36 35  1  1  0  0  0
 36 37  1  0  0  0  0
 36 51  1  0  0  0  0
 37 38  1  0  0  0  0
 38 39  1  6  0  0  0
 38 40  1  0  0  0  0
 40 41  1  1  0  0  0
 40 48  1  0  0  0  0
 41 42  1  0  0  0  0
 42 43  2  0  0  0  0
 42 44  1  0  0  0  0
 44 45  1  0  0  0  0
 45 46  1  0  0  0  0
 45 47  1  0  0  0  0
 48 49  1  6  0  0  0
 48 50  1  0  0  0  0
 48 51  1  0  0  0  0
 52 53  1  6  0  0  0
 52 56  1  0  0  0  0
 53 54  1  0  0  0  0
 53 55  1  0  0  0  0
 56 57  1  1  0  0  0
M  END
> <Acceptable>
true

> <IC50>
102

$$$$

Generated by Molecular Materials Informatics

 29 32  0  0  0  0  0  0  0  0999 V2000
  -16.6277    0.0000    0.0000 F   0  0  0  0  0  0  0  0  0  0  0  0
  -15.2420    0.8000    0.0000 C   0  0  0  0  0  0  0  0  0  0  0  0
  -13.8564    0.0000    0.0000 C   0  0  0  0  0  0  0  0  0  0  0  0
  -12.4708    0.8000    0.0000 C   0  0  0  0  0  0  0  0  0  0  0  0
  -12.4708    2.4000    0.0000 C   0  0  0  0  0  0  0  0  0  0  0  0
  -13.8564    3.2000    0.0000 C   0  0  0  0  0  0  0  0  0  0  0  0
  -15.2420    2.4000    0.0000 C   0  0  0  0  0  0  0  0  0  0  0  0
  -11.0851    3.2000    0.0000 C   0  0  0  0  0  0  0  0  0  0  0  0
  -11.0851    4.8000    0.0000 O   0  0  0  0  0  0  0  0  0  0  0  0
   -9.6995    2.4000    0.0000 C   0  0  0  0  0  0  0  0  0  0  0  0
   -9.6995    0.8000    0.0000 C   0  0  0  0  0  0  0  0  0  0  0  0
   -8.3138    0.0000    0.0000 C   0  0  0  0  0  0  0  0  0  0  0  0
   -6.9282    0.8000    0.0000 N   0  0  0  0  0  0  0  0  0  0  0  0
   -6.9282    2.4000    0.0000 C   0  0  0  0  0  0  0  0  0  0  0  0
   -8.3138    3.2000    0.0000 C   0  0  0  0  0  0  0  0  0  0  0  0
   -5.5426    0.0000    0.0000 C   0  0  0  0  0  0  0  0  0  0  0  0
   -4.1569    0.8000    0.0000 C   0  0  0  0  0  0  0  0  0  0  0  0
   -2.7713    0.0000    0.0000 N   0  0  0  0  0  0  0  0  0  0  0  0
   -2.7713   -1.6000    0.0000 C   0  0  0  0  0  0  0  0  0  0  0  0
   -4.1569   -2.4000    0.0000 O   0  0  0  0  0  0  0  0  0  0  0  0
   -1.3856   -2.4000    0.0000 N   0  0  0  0  0  0  0  0  0  0  0  0
    0.0000   -1.6000    0.0000 C   0  0  0  0  0  0  0  0  0  0  0  0
    1.3856   -2.4000    0.0000 C   0  0  0  0  0  0  0  0  0  0  0  0
    2.7713   -1.6000    0.0000 C   0  0  0  0  0  0  0  0  0  0  0  0
    2.7713    0.0000    0.0000 C   0  0  0  0  0  0  0  0  0  0  0  0
    1.3856    0.8000    0.0000 C   0  0  0  0  0  0  0  0  0  0  0  0
    0.0000    0.0000    0.0000 C   0  0  0  0  0  0  0  0  0  0  0  0
   -1.3856    0.8000    0.0000 C   0  0  0  0  0  0  0  0  0  0  0  0
   -1.3856    2.4000    0.0000 O   0  0  0  0  0  0  0  0  0  0  0  0
  1  2  1  0  0  0  0
  2  3  1  0  0  0  0
  2  7  2  0  0  0  0
  3  4  2  0  0  0  0
  4  5  1  0  0  0  0
  5  6  2  0  0  0  0
  5  8  1  0  0  0  0
  6  7  1  0  0  0  0
  8  9  2  0  0  0  0
 10  8  1  1  0  0  0
 10 11  1  0  0  0  0
 10 15  1  0  0  0  0
 11 12  1  0  0  0  0
 12 13  1  0  0  0  0
 13 14  1  0  0  0  0
 13 16  1  6  0  0  0
 14 15  1  0  0  0  0
 16 17  1  0  0  0  0
 17 18  1  0  0  0  0
 18 19  1  0  0  0  0
 18 28  1  0  0  0  0
 19 20  2  0  0  0  0
 19 21  1  0  0  0  0
 21 22  1  0  0  0  0
 22 23  1  0  0  0  0
 22 27  2  0  0  0  0
 23 24  2  0  0  0  0
 24 25  1  0  0  0  0
 25 26  2  0  0  0  0
 26 27  1  0  0  0  0
 27 28  1  0  0  0  0
 28 29  2  0  0  0  0
M  END
> <Acceptable>
false

> <IC50>
0.107

$$$$

Generated by Molecular Materials Informatics

 36 40  0  0  0  0  0  0  0  0999 V2000
   -6.3649   -0.6690    0.0000 Cl  0  0  0  0  0  0  0  0  0  0  0  0
   -4.7737   -0.5017    0.0000 C   0  0  0  0  0  0  0  0  0  0  0  0
   -3.8332   -1.7962    0.0000 C   0  0  0  0  0  0  0  0  0  0  0  0
   -2.2420   -1.6289    0.0000 C   0  0  0  0  0  0  0  0  0  0  0  0
   -1.5912   -0.1672    0.0000 C   0  0  0  0  0  0  0  0  0  0  0  0
   -2.5317    1.1272    0.0000 C   0  0  0  0  0  0  0  0  0  0  0  0
   -1.8809    2.5889    0.0000 Cl  0  0  0  0  0  0  0  0  0  0  0  0
   -4.1229    0.9599    0.0000 C   0  0  0  0  0  0  0  0  0  0  0  0
    0.0000    0.0000    0.0000 C   0  0  0  0  0  0  0  0  0  0  0  0
    0.0000   -1.6000    0.0000 O   0  0  0  0  0  0  0  0  0  0  0  0
    1.5217   -2.0944    0.0000 C   0  0  0  0  0  0  0  0  0  0  0  0
    2.4621   -0.8000    0.0000 C   0  0  0  0  0  0  0  0  0  0  0  0
    1.5217    0.4944    0.0000 O   0  0  0  0  0  0  0  0  0  0  0  0
    4.0621   -0.8000    0.0000 C   0  0  0  0  0  0  0  0  0  0  0  0
    4.8621   -2.1856    0.0000 O   0  0  0  0  0  0  0  0  0  0  0  0
    6.4621   -2.1856    0.0000 C   0  0  0  0  0  0  0  0  0  0  0  0
    7.2621   -3.5713    0.0000 C   0  0  0  0  0  0  0  0  0  0  0  0
    8.8621   -3.5713    0.0000 C   0  0  0  0  0  0  0  0  0  0  0  0
    9.6621   -2.1856    0.0000 C   0  0  0  0  0  0  0  0  0  0  0  0
   11.2621   -2.1856    0.0000 N   0  0  0  0  0  0  0  0  0  0  0  0
   12.0621   -3.5713    0.0000 C   0  0  0  0  0  0  0  0  0  0  0  0
   13.6621   -3.5713    0.0000 C   0  0  0  0  0  0  0  0  0  0  0  0
   14.4621   -2.1856    0.0000 N   0  0  0  0  0  0  0  0  0  0  0  0
   13.6621   -0.8000    0.0000 C   0  0  0  0  0  0  0  0  0  0  0  0
   12.0621   -0.8000    0.0000 C   0  0  0  0  0  0  0  0  0  0  0  0
   16.0621   -2.1856    0.0000 C   0  0  0  0  0  0  0  0  0  0  0  0
   16.8622   -0.8000    0.0000 O   0  0  0  0  0  0  0  0  0  0  0  0
   16.8621   -3.5713    0.0000 C   0  0  0  0  0  0  0  0  0  0  0  0
    8.8621   -0.8000    0.0000 C   0  0  0  0  0  0  0  0  0  0  0  0
    7.2621   -0.8000    0.0000 C   0  0  0  0  0  0  0  0  0  0  0  0
   -0.3327    1.5650    0.0000 C   0  0  0  0  0  0  0  0  0  0  0  0
    0.8564    2.6356    0.0000 N   0  0  0  0  0  0  0  0  0  0  0  0
    2.4214    2.3030    0.0000 C   0  0  0  0  0  0  0  0  0  0  0  0
    3.2214    3.6886    0.0000 N   0  0  0  0  0  0  0  0  0  0  0  0
    2.1508    4.8777    0.0000 C   0  0  0  0  0  0  0  0  0  0  0  0
    0.6891    4.2269    0.0000 C   0  0  0  0  0  0  0  0  0  0  0  0
  1  2  1  0  0  0  0
  2  3  1  0  0  0  0
  2  8  2  0  0  0  0
  3  4  2  0  0  0  0
  4  5  1  0  0  0  0
  5  6  2  0  0  0  0
  5  9  1  0  0  0  0
  6  7  1  0  0  0  0
  6  8  1  0  0  0  0
  9 10  1  0  0  0  0
  9 13  1  0  0  0  0
  9 31  1  1  0  0  0
 10 11  1  0  0  0  0
 11 12  1  0  0  0  0
 12 13  1  0  0  0  0
 12 14  1  6  0  0  0
 14 15  1  0  0  0  0
 15 16  1  0  0  0  0
 16 17  1  0  0  0  0
 16 30  2  0  0  0  0
 17 18  2  0  0  0  0
 18 19  1  0  0  0  0
 19 20  1  0  0  0  0
 19 29  2  0  0  0  0
 20 21  1  0  0  0  0
 20 25  1  0  0  0  0
 21 22  1  0  0  0  0
 22 23  1  0  0  0  0
 23 24  1  0  0  0  0
 23 26  1  0  0  0  0
 24 25  1  0  0  0  0
 26 27  2  0  0  0  0
 26 28  1  0  0  0  0
 29 30  1  0  0  0  0
 31 32  1  0  0  0  0
 32 33  1  0  0  0  0
 32 36  1  0  0  0  0
 33 34  2  0  0  0  0
 34 35  1  0  0  0  0
 35 36  2  0  0  0  0
M  END
> <Acceptable>
false

> <IC50>
1.9

$$$$

Generated by Molecular Materials Informatics

 19 20  0  0  0  0  0  0  0  0999 V2000
   -1.3856    2.4000    0.0000 O   0  0  0  0  0  0  0  0  0  0  0  0
   -1.3856    0.8000    0.0000 C   0  0  0  0  0  0  0  0  0  0  0  0
   -2.7713    0.0000    0.0000 C   0  0  0  0  0  0  0  0  0  0  0  0
   -4.1569    0.8000    0.0000 C   0  0  0  0  0  0  0  0  0  0  0  0
   -5.5426    0.0000    0.0000 C   0  0  0  0  0  0  0  0  0  0  0  0
   -5.5426   -1.6000    0.0000 C   0  0  0  0  0  0  0  0  0  0  0  0
   -4.1569   -2.4000    0.0000 C   0  0  0  0  0  0  0  0  0  0  0  0
   -2.7713   -1.6000    0.0000 C   0  0  0  0  0  0  0  0  0  0  0  0
    0.0000    0.0000    0.0000 C   0  0  0  0  0  0  0  0  0  0  0  0
    0.0000   -1.6000    0.0000 C   0  0  0  0  0  0  0  0  0  0  0  0
    1.3856   -2.4000    0.0000 C   0  0  0  0  0  0  0  0  0  0  0  0
    2.7713   -1.6000    0.0000 C   0  0  0  0  0  0  0  0  0  0  0  0
    2.7713    0.0000    0.0000 C   0  0  0  0  0  0  0  0  0  0  0  0
    1.3856    0.8000    0.0000 C   0  0  0  0  0  0  0  0  0  0  0  0
    4.1569    0.8000    0.0000 C   0  0  0  0  0  0  0  0  0  0  0  0
    4.1569    2.4000    0.0000 C   0  0  0  0  0  0  0  0  0  0  0  0
    5.5426    0.0000    0.0000 C   0  0  0  0  0  0  0  0  0  0  0  0
    5.5426   -1.6000    0.0000 O   0  0  0  0  0  0  0  0  0  0  0  0
    6.9282    0.8000    0.0000 O   0  0  0  0  0  0  0  0  0  0  0  0
  1  2  2  0  0  0  0
  2  3  1  0  0  0  0
  2  9  1  0  0  0  0
  3  4  1  0  0  0  0
  3  8  2  0  0  0  0
  4  5  2  0  0  0  0
  5  6  1  0  0  0  0
  6  7  2  0  0  0  0
  7  8  1  0  0  0  0
  9 10  1  0  0  0  0
  9 14  2  0  0  0  0
 10 11  2  0  0  0  0
 11 12  1  0  0  0  0
 12 13  2  0  0  0  0
 13 14  1  0  0  0  0
 13 15  1  0  0  0  0
 15 16  1  6  0  0  0
 15 17  1  0  0  0  0
 17 18  2  0  0  0  0
 17 19  1  0  0  0  0
M  END
> <Acceptable>
true

> <IC50>
N/A

$$$$

Generated by Molecular Materials Informatics

 19 21  0  0  0  0  0  0  0  0999 V2000
    3.0146    1.4420    0.0000 O   0  0  0  0  0  0  0  0  0  0  0  0
    2.8473   -0.1492    0.0000 C   0  0  0  0  0  0  0  0  0  0  0  0
    1.3856   -0.8000    0.0000 C   0  0  0  0  0  0  0  0  0  0  0  0
    0.0000    0.0000    0.0000 N   0  0  0  0  0  0  0  0  0  0  0  0
   -0.6508    1.4617    0.0000 C   0  0  0  0  0  0  0  0  0  0  0  0
   -2.2420    1.2944    0.0000 C   0  0  0  0  0  0  0  0  0  0  0  0
   -2.5747   -0.2706    0.0000 C   0  0  0  0  0  0  0  0  0  0  0  0
   -1.1890   -1.0706    0.0000 C   0  0  0  0  0  0  0  0  0  0  0  0
   -0.5383   -2.5323    0.0000 C   0  0  0  0  0  0  0  0  0  0  0  0
    1.0530   -2.3650    0.0000 C   0  0  0  0  0  0  0  0  0  0  0  0
   -4.0363   -0.9214    0.0000 C   0  0  0  0  0  0  0  0  0  0  0  0
   -4.2036   -2.5126    0.0000 O   0  0  0  0  0  0  0  0  0  0  0  0
   -5.3308    0.0191    0.0000 O   0  0  0  0  0  0  0  0  0  0  0  0
    4.1417   -1.0897    0.0000 C   0  0  0  0  0  0  0  0  0  0  0  0
    3.9745   -2.6809    0.0000 C   0  0  0  0  0  0  0  0  0  0  0  0
    5.2689   -3.6214    0.0000 C   0  0  0  0  0  0  0  0  0  0  0  0
    6.7306   -2.9706    0.0000 C   0  0  0  0  0  0  0  0  0  0  0  0
    6.8978   -1.3794    0.0000 C   0  0  0  0  0  0  0  0  0  0  0  0
    5.6034   -0.4389    0.0000 C   0  0  0  0  0  0  0  0  0  0  0  0
  1  2  2  0  0  0  0
  2  3  1  0  0  0  0
  2 14  1  0  0  0  0
  3  4  1  0  0  0  0
  3 10  2  0  0  0  0
  4  5  1  0  0  0  0
  4  8  1  0  0  0  0
  5  6  1  0  0  0  0
  6  7  1  0  0  0  0
  7  8  1  0  0  0  0
  7 11  1  6  0  0  0
  8  9  2  0  0  0  0
  9 10  1  0  0  0  0
 11 12  2  0  0  0  0
 11 13  1  0  0  0  0
 14 15  1  0  0  0  0
 14 19  2  0  0  0  0
 15 16  2  0  0  0  0
 16 17  1  0  0  0  0
 17 18  2  0  0  0  0
 18 19  1  0  0  0  0
M  END
> <Acceptable>
true

> <IC50>
N/A

$$$$

Generated by Molecular Materials Informatics

 30 33  0  0  0  0  0  0  0  0999 V2000
   -0.0302    5.1672    0.0000 O   0  0  0  0  0  0  0  0  0  0  0  0
    3.8246    1.0838    0.0000 O   0  0  0  0  0  0  0  0  0  0  0  0
   -1.7976    3.1135    0.0000 N   0  0  0  0  0  0  0  0  0  0  0  0
    1.1729    1.0883    0.0000 N   0  0  0  0  0  0  0  0  0  0  0  0
    2.4390    3.4838    0.0000 N   0  0  0  0  0  0  0  0  0  0  0  0
    5.2102    3.4838    0.0000 N   0  0  0  0  0  0  0  0  0  0  0  0
    1.0533    2.6838    0.0000 C   0  0  0  0  0  0  0  0  0  0  0  0
   -2.3821    1.6241    0.0000 C   0  0  0  0  0  0  0  0  0  0  0  0
   -1.5821    0.2385    0.0000 C   0  0  0  0  0  0  0  0  0  0  0  0
    0.0000    0.0000    0.0000 C   0  0  0  0  0  0  0  0  0  0  0  0
   -0.2687    3.5851    0.0000 C   0  0  0  0  0  0  0  0  0  0  0  0
    0.4716   -1.5289    0.0000 C   0  0  0  0  0  0  0  0  0  0  0  0
   -3.9821    1.6241    0.0000 C   0  0  0  0  0  0  0  0  0  0  0  0
   -2.3821   -1.1472    0.0000 C   0  0  0  0  0  0  0  0  0  0  0  0
   -2.8859    4.2864    0.0000 C   0  0  0  0  0  0  0  0  0  0  0  0
   -4.7821    0.2385    0.0000 C   0  0  0  0  0  0  0  0  0  0  0  0
   -3.9821   -1.1472    0.0000 C   0  0  0  0  0  0  0  0  0  0  0  0
   -0.6167   -2.7018    0.0000 C   0  0  0  0  0  0  0  0  0  0  0  0
    2.0315   -1.8849    0.0000 C   0  0  0  0  0  0  0  0  0  0  0  0
    3.8246    2.6838    0.0000 C   0  0  0  0  0  0  0  0  0  0  0  0
   -0.1451   -4.2307    0.0000 C   0  0  0  0  0  0  0  0  0  0  0  0
    2.5031   -3.4139    0.0000 C   0  0  0  0  0  0  0  0  0  0  0  0
    6.5959    2.6838    0.0000 C   0  0  0  0  0  0  0  0  0  0  0  0
    1.4148   -4.5867    0.0000 C   0  0  0  0  0  0  0  0  0  0  0  0
    6.5959    1.0838    0.0000 C   0  0  0  0  0  0  0  0  0  0  0  0
    7.9815    0.2838    0.0000 C   0  0  0  0  0  0  0  0  0  0  0  0
    7.9815    3.4838    0.0000 C   0  0  0  0  0  0  0  0  0  0  0  0
    9.3672    1.0838    0.0000 C   0  0  0  0  0  0  0  0  0  0  0  0
    9.3672    2.6838    0.0000 C   0  0  0  0  0  0  0  0  0  0  0  0
    7.9815   -1.3162    0.0000 C   0  0  0  0  0  0  0  0  0  0  0  0
  1 11  2  0  0  0  0
  2 20  2  0  0  0  0
  3  8  1  0  0  0  0
  3 11  1  0  0  0  0
  3 15  1  0  0  0  0
  4  7  1  0  0  0  0
  4 10  2  0  0  0  0
  7  5  1  6  0  0  0
  5 20  1  0  0  0  0
  6 20  1  0  0  0  0
  6 23  1  0  0  0  0
  7 11  1  0  0  0  0
  8  9  2  0  0  0  0
  8 13  1  0  0  0  0
  9 10  1  0  0  0  0
  9 14  1  0  0  0  0
 10 12  1  0  0  0  0
 12 18  2  0  0  0  0
 12 19  1  0  0  0  0
 13 16  2  0  0  0  0
 14 17  2  0  0  0  0
 16 17  1  0  0  0  0
 18 21  1  0  0  0  0
 19 22  2  0  0  0  0
 21 24  2  0  0  0  0
 22 24  1  0  0  0  0
 23 25  2  0  0  0  0
 23 27  1  0  0  0  0
 25 26  1  0  0  0  0
 26 28  2  0  0  0  0
 26 30  1  0  0  0  0
 27 29  2  0  0  0  0
 28 29  1  0  0  0  0
M  END
> <Acceptable>
false

> <IC50>
1.1

$$$$

Generated by Molecular Materials Informatics

 32 36  0  0  0  0  0  0  0  0999 V2000
    8.0000    2.7713    0.0000 S   0  0  0  0  0  0  0  0  0  0  0  0
    0.8000    1.3856    0.0000 O   0  0  0  0  0  0  0  0  0  0  0  0
    3.2000   -2.7713    0.0000 O   0  0  0  0  0  0  0  0  0  0  0  0
  -12.1323    0.5383    0.0000 O   0  0  0  0  0  0  0  0  0  0  0  0
    6.6144    3.5713    0.0000 O   0  0  0  0  0  0  0  0  0  0  0  0
    9.3856    1.9713    0.0000 O   0  0  0  0  0  0  0  0  0  0  0  0
   -3.2000    0.0000    0.0000 N   0  0  0  0  0  0  0  0  0  0  0  0
    7.2000    1.3856    0.0000 N   0  0  0  0  0  0  0  0  0  0  0  0
  -10.6706    1.1890    0.0000 N   0  0  0  0  0  0  0  0  0  0  0  0
  -11.9650   -1.0530    0.0000 N   0  0  0  0  0  0  0  0  0  0  0  0
    0.0000    0.0000    0.0000 C   0  0  0  0  0  0  0  0  0  0  0  0
   -0.8000   -1.3856    0.0000 C   0  0  0  0  0  0  0  0  0  0  0  0
   -0.8000    1.3856    0.0000 C   0  0  0  0  0  0  0  0  0  0  0  0
   -2.4000   -1.3856    0.0000 C   0  0  0  0  0  0  0  0  0  0  0  0
   -2.4000    1.3856    0.0000 C   0  0  0  0  0  0  0  0  0  0  0  0
    0.8000   -1.3856    0.0000 C   0  0  0  0  0  0  0  0  0  0  0  0
   -4.8000    0.0000    0.0000 C   0  0  0  0  0  0  0  0  0  0  0  0
    2.4000   -1.3856    0.0000 C   0  0  0  0  0  0  0  0  0  0  0  0
    2.4000    1.3856    0.0000 C   0  0  0  0  0  0  0  0  0  0  0  0
    3.2000    0.0000    0.0000 C   0  0  0  0  0  0  0  0  0  0  0  0
   -5.6000   -1.3856    0.0000 C   0  0  0  0  0  0  0  0  0  0  0  0
    3.2000    2.7713    0.0000 C   0  0  0  0  0  0  0  0  0  0  0  0
    4.8000    0.0000    0.0000 C   0  0  0  0  0  0  0  0  0  0  0  0
   -7.2000   -1.3856    0.0000 C   0  0  0  0  0  0  0  0  0  0  0  0
    5.6000    1.3856    0.0000 C   0  0  0  0  0  0  0  0  0  0  0  0
    4.8000    2.7713    0.0000 C   0  0  0  0  0  0  0  0  0  0  0  0
   -8.0000    0.0000    0.0000 C   0  0  0  0  0  0  0  0  0  0  0  0
   -8.0000   -2.7713    0.0000 C   0  0  0  0  0  0  0  0  0  0  0  0
   -9.6000    0.0000    0.0000 C   0  0  0  0  0  0  0  0  0  0  0  0
   -9.6000   -2.7713    0.0000 C   0  0  0  0  0  0  0  0  0  0  0  0
  -10.4000   -1.3856    0.0000 C   0  0  0  0  0  0  0  0  0  0  0  0
    8.8000    4.1569    0.0000 C   0  0  0  0  0  0  0  0  0  0  0  0
  1  5  2  0  0  0  0
  1  6  2  0  0  0  0
  1  8  1  0  0  0  0
  1 32  1  0  0  0  0
  2 11  1  0  0  0  0
  2 19  1  0  0  0  0
  3 18  2  0  0  0  0
  4  9  1  0  0  0  0
  4 10  1  0  0  0  0
  7 14  1  0  0  0  0
  7 15  1  0  0  0  0
  7 17  1  1  0  0  0
  8 25  1  0  0  0  0
  9 29  2  0  0  0  0
 10 31  2  0  0  0  0
 11 12  1  0  0  0  0
 11 13  1  0  0  0  0
 11 16  1  6  0  0  0
 12 14  1  0  0  0  0
 13 15  1  0  0  0  0
 16 18  1  0  0  0  0
 17 21  1  0  0  0  0
 18 20  1  0  0  0  0
 19 20  2  0  0  0  0
 19 22  1  0  0  0  0
 20 23  1  0  0  0  0
 21 24  1  0  0  0  0
 22 26  2  0  0  0  0
 23 25  2  0  0  0  0
 24 27  2  0  0  0  0
 24 28  1  0  0  0  0
 25 26  1  0  0  0  0
 27 29  1  0  0  0  0
 28 30  2  0  0  0  0
 29 31  1  0  0  0  0
 30 31  1  0  0  0  0
M  END
> <Acceptable>
false

> <IC50>
0.008

$$$$

Generated by Molecular Materials Informatics

 41 44  0  0  0  0  0  0  0  0999 V2000
   -3.2963    2.5254    0.0000 F   0  0  0  0  0  0  0  0  0  0  0  0
   -2.4794    5.1735    0.0000 F   0  0  0  0  0  0  0  0  0  0  0  0
   -3.6523    4.0852    0.0000 F   0  0  0  0  0  0  0  0  0  0  0  0
    6.4453    1.2498    0.0000 F   0  0  0  0  0  0  0  0  0  0  0  0
    8.8453    2.6354    0.0000 F   0  0  0  0  0  0  0  0  0  0  0  0
    8.0453    1.2498    0.0000 F   0  0  0  0  0  0  0  0  0  0  0  0
   12.8453    4.0211    0.0000 F   0  0  0  0  0  0  0  0  0  0  0  0
   12.8453    6.7924    0.0000 F   0  0  0  0  0  0  0  0  0  0  0  0
   13.6453    5.4067    0.0000 F   0  0  0  0  0  0  0  0  0  0  0  0
    0.2653    4.2444    0.0000 O   0  0  0  0  0  0  0  0  0  0  0  0
    5.6453    2.6354    0.0000 O   0  0  0  0  0  0  0  0  0  0  0  0
   -0.2385    1.5821    0.0000 N   0  0  0  0  0  0  0  0  0  0  0  0
    3.2453    4.0211    0.0000 N   0  0  0  0  0  0  0  0  0  0  0  0
    3.3466    1.3135    0.0000 N   0  0  0  0  0  0  0  0  0  0  0  0
    2.4453    2.6354    0.0000 C   0  0  0  0  0  0  0  0  0  0  0  0
    0.0000    0.0000    0.0000 C   0  0  0  0  0  0  0  0  0  0  0  0
    1.3856   -0.8000    0.0000 C   0  0  0  0  0  0  0  0  0  0  0  0
    0.8498    2.7550    0.0000 C   0  0  0  0  0  0  0  0  0  0  0  0
    2.8750   -0.2155    0.0000 C   0  0  0  0  0  0  0  0  0  0  0  0
   -1.7674    2.0537    0.0000 C   0  0  0  0  0  0  0  0  0  0  0  0
    5.6453    5.4067    0.0000 C   0  0  0  0  0  0  0  0  0  0  0  0
   -1.3856   -0.8000    0.0000 C   0  0  0  0  0  0  0  0  0  0  0  0
    1.3856   -2.4000    0.0000 C   0  0  0  0  0  0  0  0  0  0  0  0
    4.0479   -1.3037    0.0000 C   0  0  0  0  0  0  0  0  0  0  0  0
    7.2453    5.4067    0.0000 C   0  0  0  0  0  0  0  0  0  0  0  0
    4.8453    4.0211    0.0000 C   0  0  0  0  0  0  0  0  0  0  0  0
   -2.1234    3.6136    0.0000 C   0  0  0  0  0  0  0  0  0  0  0  0
    8.0453    4.0211    0.0000 C   0  0  0  0  0  0  0  0  0  0  0  0
   -1.3856   -2.4000    0.0000 C   0  0  0  0  0  0  0  0  0  0  0  0
    0.0000   -3.2000    0.0000 C   0  0  0  0  0  0  0  0  0  0  0  0
    8.0453    6.7924    0.0000 C   0  0  0  0  0  0  0  0  0  0  0  0
    9.6453    4.0211    0.0000 C   0  0  0  0  0  0  0  0  0  0  0  0
   10.4453    5.4067    0.0000 C   0  0  0  0  0  0  0  0  0  0  0  0
    3.6919   -2.8636    0.0000 C   0  0  0  0  0  0  0  0  0  0  0  0
    5.5768   -0.8321    0.0000 C   0  0  0  0  0  0  0  0  0  0  0  0
    9.6453    6.7924    0.0000 C   0  0  0  0  0  0  0  0  0  0  0  0
    7.2453    2.6354    0.0000 C   0  0  0  0  0  0  0  0  0  0  0  0
    4.8648   -3.9519    0.0000 C   0  0  0  0  0  0  0  0  0  0  0  0
    6.7497   -1.9204    0.0000 C   0  0  0  0  0  0  0  0  0  0  0  0
   12.0453    5.4067    0.0000 C   0  0  0  0  0  0  0  0  0  0  0  0
    6.3937   -3.4803    0.0000 C   0  0  0  0  0  0  0  0  0  0  0  0
  1 27  1  0  0  0  0
  2 27  1  0  0  0  0
  3 27  1  0  0  0  0
  4 37  1  0  0  0  0
  5 37  1  0  0  0  0
  6 37  1  0  0  0  0
  7 40  1  0  0  0  0
  8 40  1  0  0  0  0
  9 40  1  0  0  0  0
 10 18  2  0  0  0  0
 11 26  2  0  0  0  0
 12 16  1  0  0  0  0
 12 18  1  0  0  0  0
 12 20  1  0  0  0  0
 15 13  1  6  0  0  0
 13 26  1  0  0  0  0
 14 15  1  0  0  0  0
 14 19  2  0  0  0  0
 15 18  1  0  0  0  0
 16 17  2  0  0  0  0
 16 22  1  0  0  0  0
 17 19  1  0  0  0  0
 17 23  1  0  0  0  0
 19 24  1  0  0  0  0
 20 27  1  0  0  0  0
 21 25  1  0  0  0  0
 21 26  1  0  0  0  0
 22 29  2  0  0  0  0
 23 30  2  0  0  0  0
 24 34  2  0  0  0  0
 24 35  1  0  0  0  0
 25 28  2  0  0  0  0
 25 31  1  0  0  0  0
 28 32  1  0  0  0  0
 28 37  1  0  0  0  0
 29 30  1  0  0  0  0
 31 36  2  0  0  0  0
 32 33  2  0  0  0  0
 33 36  1  0  0  0  0
 33 40  1  0  0  0  0
 34 38  1  0  0  0  0
 35 39  2  0  0  0  0
 38 41  2  0  0  0  0
 39 41  1  0  0  0  0
M  END
> <Acceptable>
false

> <IC50>
8.71

$$$$

Generated by Molecular Materials Informatics

 26 27  0  0  0  0  0  0  0  0999 V2000
    1.3856    2.4000    0.0000 C   0  0  0  0  0  0  0  0  0  0  0  0
    1.3856    0.8000    0.0000 C   0  0  0  0  0  0  0  0  0  0  0  0
    0.0000    0.0000    0.0000 C   0  0  0  0  0  0  0  0  0  0  0  0
    2.7713    0.0000    0.0000 O   0  0  0  0  0  0  0  0  0  0  0  0
    0.8000   -1.3856    0.0000 C   0  0  0  0  0  0  0  0  0  0  0  0
    2.4000   -1.3856    0.0000 C   0  0  0  0  0  0  0  0  0  0  0  0
    2.4000   -4.1569    0.0000 C   0  0  0  0  0  0  0  0  0  0  0  0
    0.8000   -4.1569    0.0000 C   0  0  0  0  0  0  0  0  0  0  0  0
    3.2000   -2.7713    0.0000 C   0  0  0  0  0  0  0  0  0  0  0  0
    0.0000   -2.7713    0.0000 C   0  0  0  0  0  0  0  0  0  0  0  0
   -0.8000    1.3856    0.0000 C   0  0  0  0  0  0  0  0  0  0  0  0
   -2.4000    1.3856    0.0000 C   0  0  0  0  0  0  0  0  0  0  0  0
   -2.4000    4.1569    0.0000 C   0  0  0  0  0  0  0  0  0  0  0  0
   -0.8000    4.1569    0.0000 C   0  0  0  0  0  0  0  0  0  0  0  0
   -3.2000    2.7713    0.0000 C   0  0  0  0  0  0  0  0  0  0  0  0
    0.0000    2.7713    0.0000 C   0  0  0  0  0  0  0  0  0  0  0  0
   -1.3856   -0.8000    0.0000 C   0  0  0  0  0  0  0  0  0  0  0  0
   -2.9856   -0.8000    0.0000 C   0  0  0  0  0  0  0  0  0  0  0  0
   -3.7856   -2.1856    0.0000 N   0  0  0  0  0  0  0  0  0  0  0  0
   -2.9856   -3.5713    0.0000 C   0  0  0  0  0  0  0  0  0  0  0  0
   -5.3856   -2.1856    0.0000 C   0  0  0  0  0  0  0  0  0  0  0  0
   -3.7856    0.5856    0.0000 C   0  0  0  0  0  0  0  0  0  0  0  0
    4.1569    0.8000    0.0000 C   0  0  0  0  0  0  0  0  0  0  0  0
    4.1569    2.4000    0.0000 O   0  0  0  0  0  0  0  0  0  0  0  0
    5.5426    0.0000    0.0000 C   0  0  0  0  0  0  0  0  0  0  0  0
    2.7713    3.2000    0.0000 C   0  0  0  0  0  0  0  0  0  0  0  0
  1  2  1  0  0  0  0
  1 26  1  0  0  0  0
  2  3  1  0  0  0  0
  2  4  1  6  0  0  0
  3  5  1  0  0  0  0
  3 11  1  0  0  0  0
  3 17  1  0  0  0  0
  4 23  1  0  0  0  0
  5  6  1  0  0  0  0
  5 10  2  0  0  0  0
  6  9  2  0  0  0  0
  7  8  2  0  0  0  0
  7  9  1  0  0  0  0
  8 10  1  0  0  0  0
 11 12  1  0  0  0  0
 11 16  2  0  0  0  0
 12 15  2  0  0  0  0
 13 14  2  0  0  0  0
 13 15  1  0  0  0  0
 14 16  1  0  0  0  0
 17 18  1  0  0  0  0
 18 19  1  0  0  0  0
 18 22  1  1  0  0  0
 19 20  1  0  0  0  0
 19 21  1  0  0  0  0
 23 24  2  0  0  0  0
 23 25  1  0  0  0  0
M  END
> <Acceptable>
false

> <IC50>
2.45

$$$$

Generated by Molecular Materials Informatics

 26 27  0  0  0  0  0  0  0  0999 V2000
    4.1569    2.4000    0.0000 O   0  0  0  0  0  0  0  0  0  0  0  0
    4.1569    0.8000    0.0000 C   0  0  0  0  0  0  0  0  0  0  0  0
    2.7713    0.0000    0.0000 O   0  0  0  0  0  0  0  0  0  0  0  0
    1.3856    0.8000    0.0000 C   0  0  0  0  0  0  0  0  0  0  0  0
    1.3856    2.4000    0.0000 C   0  0  0  0  0  0  0  0  0  0  0  0
    2.7713    3.2000    0.0000 C   0  0  0  0  0  0  0  0  0  0  0  0
    0.0000    0.0000    0.0000 C   0  0  0  0  0  0  0  0  0  0  0  0
   -1.3856   -0.8000    0.0000 C   0  0  0  0  0  0  0  0  0  0  0  0
   -2.9856   -0.8000    0.0000 C   0  0  0  0  0  0  0  0  0  0  0  0
   -3.7856   -2.1856    0.0000 N   0  0  0  0  0  0  0  0  0  0  0  0
   -2.9856   -3.5713    0.0000 C   0  0  0  0  0  0  0  0  0  0  0  0
   -5.3856   -2.1856    0.0000 C   0  0  0  0  0  0  0  0  0  0  0  0
   -3.7856    0.5856    0.0000 C   0  0  0  0  0  0  0  0  0  0  0  0
    0.8000   -1.3856    0.0000 C   0  0  0  0  0  0  0  0  0  0  0  0
    2.4000   -1.3856    0.0000 C   0  0  0  0  0  0  0  0  0  0  0  0
    3.2000   -2.7713    0.0000 C   0  0  0  0  0  0  0  0  0  0  0  0
    2.4000   -4.1569    0.0000 C   0  0  0  0  0  0  0  0  0  0  0  0
    0.8000   -4.1569    0.0000 C   0  0  0  0  0  0  0  0  0  0  0  0
    0.0000   -2.7713    0.0000 C   0  0  0  0  0  0  0  0  0  0  0  0
   -0.8000    1.3856    0.0000 C   0  0  0  0  0  0  0  0  0  0  0  0
   -2.4000    1.3856    0.0000 C   0  0  0  0  0  0  0  0  0  0  0  0
   -3.2000    2.7713    0.0000 C   0  0  0  0  0  0  0  0  0  0  0  0
   -2.4000    4.1569    0.0000 C   0  0  0  0  0  0  0  0  0  0  0  0
   -0.8000    4.1569    0.0000 C   0  0  0  0  0  0  0  0  0  0  0  0
    0.0000    2.7713    0.0000 C   0  0  0  0  0  0  0  0  0  0  0  0
    5.5426    0.0000    0.0000 C   0  0  0  0  0  0  0  0  0  0  0  0
  1  2  2  0  0  0  0
  2  3  1  0  0  0  0
  2 26  1  0  0  0  0
  3  4  1  0  0  0  0
  4  5  1  1  0  0  0
  4  7  1  0  0  0  0
  5  6  1  0  0  0  0
  7  8  1  0  0  0  0
  7 14  1  0  0  0  0
  7 20  1  0  0  0  0
  8  9  1  0  0  0  0
  9 10  1  0  0  0  0
  9 13  1  6  0  0  0
 10 11  1  0  0  0  0
 10 12  1  0  0  0  0
 14 15  1  0  0  0  0
 14 19  2  0  0  0  0
 15 16  2  0  0  0  0
 16 17  1  0  0  0  0
 17 18  2  0  0  0  0
 18 19  1  0  0  0  0
 20 21  1  0  0  0  0
 20 25  2  0  0  0  0
 21 22  2  0  0  0  0
 22 23  1  0  0  0  0
 23 24  2  0  0  0  0
 24 25  1  0  0  0  0
M  END
> <Acceptable>
false

> <IC50>
2.18

$$$$

Generated by Molecular Materials Informatics

 24 25  0  0  0  0  0  0  0  0999 V2000
   -2.7713    0.0000    0.0000 O   0  0  0  0  0  0  0  0  0  0  0  0
   -1.3856    0.8000    0.0000 C   0  0  0  0  0  0  0  0  0  0  0  0
   -1.3856    2.4000    0.0000 N   0  0  0  0  0  0  0  0  0  0  0  0
    0.0000    0.0000    0.0000 C   0  0  0  0  0  0  0  0  0  0  0  0
    1.3856    0.8000    0.0000 C   0  0  0  0  0  0  0  0  0  0  0  0
    2.7713    0.0000    0.0000 C   0  0  0  0  0  0  0  0  0  0  0  0
    2.7713   -1.6000    0.0000 C   0  0  0  0  0  0  0  0  0  0  0  0
    1.3856   -2.4000    0.0000 C   0  0  0  0  0  0  0  0  0  0  0  0
    0.0000   -1.6000    0.0000 C   0  0  0  0  0  0  0  0  0  0  0  0
   -1.3856   -2.4000    0.0000 O   0  0  0  0  0  0  0  0  0  0  0  0
    4.1569    0.8000    0.0000 C   0  0  0  0  0  0  0  0  0  0  0  0
    4.1569    2.4000    0.0000 O   0  0  0  0  0  0  0  0  0  0  0  0
    5.5426    0.0000    0.0000 C   0  0  0  0  0  0  0  0  0  0  0  0
    6.9282    0.8000    0.0000 N   0  0  0  0  0  0  0  0  0  0  0  0
    8.3138    0.0000    0.0000 C   0  0  0  0  0  0  0  0  0  0  0  0
    8.3138   -1.6000    0.0000 C   0  0  0  0  0  0  0  0  0  0  0  0
    9.6995    0.8000    0.0000 C   0  0  0  0  0  0  0  0  0  0  0  0
   11.0851    0.0000    0.0000 C   0  0  0  0  0  0  0  0  0  0  0  0
   12.4708    0.8000    0.0000 C   0  0  0  0  0  0  0  0  0  0  0  0
   12.4708    2.4000    0.0000 C   0  0  0  0  0  0  0  0  0  0  0  0
   13.8564    3.2000    0.0000 C   0  0  0  0  0  0  0  0  0  0  0  0
   15.2420    2.4000    0.0000 C   0  0  0  0  0  0  0  0  0  0  0  0
   15.2420    0.8000    0.0000 C   0  0  0  0  0  0  0  0  0  0  0  0
   13.8564    0.0000    0.0000 C   0  0  0  0  0  0  0  0  0  0  0  0
  1  2  2  0  0  0  0
  2  3  1  0  0  0  0
  2  4  1  0  0  0  0
  4  5  1  0  0  0  0
  4  9  2  0  0  0  0
  5  6  2  0  0  0  0
  6  7  1  0  0  0  0
  6 11  1  0  0  0  0
  7  8  2  0  0  0  0
  8  9  1  0  0  0  0
  9 10  1  0  0  0  0
 11 12  1  6  0  0  0
 11 13  1  0  0  0  0
 13 14  1  0  0  0  0
 14 15  1  0  0  0  0
 15 16  1  1  0  0  0
 15 17  1  0  0  0  0
 17 18  1  0  0  0  0
 18 19  1  0  0  0  0
 19 20  1  0  0  0  0
 19 24  2  0  0  0  0
 20 21  2  0  0  0  0
 21 22  1  0  0  0  0
 22 23  2  0  0  0  0
 23 24  1  0  0  0  0
M  END
> <Acceptable>
true

> <IC50>
N/A

$$$$

Generated by Molecular Materials Informatics

 19 20  0  0  0  0  0  0  0  0999 V2000
    1.2257   -1.0285    0.0000 O   0  0  0  0  0  0  0  0  0  0  0  0
    7.2397   -1.1605    0.0000 O   0  0  0  0  0  0  0  0  0  0  0  0
    2.1735    3.6326    0.0000 N   0  0  0  0  0  0  0  0  0  0  0  0
    0.0000    0.0000    0.0000 C   0  0  0  0  0  0  0  0  0  0  0  0
    1.2257    1.0285    0.0000 C   0  0  0  0  0  0  0  0  0  0  0  0
   -0.8000   -1.3856    0.0000 C   0  0  0  0  0  0  0  0  0  0  0  0
   -0.8000    1.3856    0.0000 C   0  0  0  0  0  0  0  0  0  0  0  0
   -2.4000   -1.3856    0.0000 C   0  0  0  0  0  0  0  0  0  0  0  0
   -2.4000    1.3856    0.0000 C   0  0  0  0  0  0  0  0  0  0  0  0
   -3.2000    0.0000    0.0000 C   0  0  0  0  0  0  0  0  0  0  0  0
    0.9478    2.6042    0.0000 C   0  0  0  0  0  0  0  0  0  0  0  0
    2.7292    0.4812    0.0000 C   0  0  0  0  0  0  0  0  0  0  0  0
    3.9548    1.5097    0.0000 C   0  0  0  0  0  0  0  0  0  0  0  0
    3.0070   -1.0945    0.0000 C   0  0  0  0  0  0  0  0  0  0  0  0
    3.6770    3.0854    0.0000 C   0  0  0  0  0  0  0  0  0  0  0  0
    1.8957    5.2083    0.0000 C   0  0  0  0  0  0  0  0  0  0  0  0
    5.4584    0.9625    0.0000 C   0  0  0  0  0  0  0  0  0  0  0  0
    4.5105   -1.6417    0.0000 C   0  0  0  0  0  0  0  0  0  0  0  0
    5.7362   -0.6132    0.0000 C   0  0  0  0  0  0  0  0  0  0  0  0
  1  4  1  0  0  0  0
  2 19  1  0  0  0  0
  3 11  1  0  0  0  0
  3 15  1  0  0  0  0
  3 16  1  0  0  0  0
  4  5  1  0  0  0  0
  4  6  1  0  0  0  0
  4  7  1  0  0  0  0
  5 11  1  0  0  0  0
  5 12  1  1  0  0  0
  6  8  1  0  0  0  0
  7  9  1  0  0  0  0
  8 10  1  0  0  0  0
  9 10  1  0  0  0  0
 12 13  2  0  0  0  0
 12 14  1  0  0  0  0
 13 17  1  0  0  0  0
 14 18  2  0  0  0  0
 17 19  2  0  0  0  0
 18 19  1  0  0  0  0
M  END
> <Acceptable>
true

> <IC50>
N/A

$$$$

Generated by Molecular Materials Informatics

 15 16  0  0  0  0  0  0  0  0999 V2000
   -4.0621   -0.8000    0.0000 S   0  0  0  0  0  0  0  0  0  0  0  0
   -2.5405   -1.2944    0.0000 C   0  0  0  0  0  0  0  0  0  0  0  0
   -1.6000    0.0000    0.0000 C   0  0  0  0  0  0  0  0  0  0  0  0
   -2.5405    1.2944    0.0000 O   0  0  0  0  0  0  0  0  0  0  0  0
   -4.0621    0.8000    0.0000 C   0  0  0  0  0  0  0  0  0  0  0  0
   -5.3566    1.7405    0.0000 C   0  0  0  0  0  0  0  0  0  0  0  0
   -6.8182    1.0897    0.0000 O   0  0  0  0  0  0  0  0  0  0  0  0
    0.0000    0.0000    0.0000 N   0  0  0  0  0  0  0  0  0  0  0  0
    0.8000   -1.3856    0.0000 C   0  0  0  0  0  0  0  0  0  0  0  0
    2.4000   -1.3856    0.0000 C   0  0  0  0  0  0  0  0  0  0  0  0
    3.2000    0.0000    0.0000 C   0  0  0  0  0  0  0  0  0  0  0  0
    4.8000    0.0000    0.0000 N   0  0  0  0  0  0  0  0  0  0  0  0
    2.4000    1.3856    0.0000 N   0  0  0  0  0  0  0  0  0  0  0  0
    0.8000    1.3856    0.0000 C   0  0  0  0  0  0  0  0  0  0  0  0
    0.0000    2.7713    0.0000 O   0  0  0  0  0  0  0  0  0  0  0  0
  1  2  1  0  0  0  0
  1  5  1  0  0  0  0
  2  3  1  0  0  0  0
  3  4  1  0  0  0  0
  3  8  1  6  0  0  0
  4  5  1  0  0  0  0
  5  6  1  1  0  0  0
  6  7  1  0  0  0  0
  8  9  1  0  0  0  0
  8 14  1  0  0  0  0
  9 10  2  0  0  0  0
 10 11  1  0  0  0  0
 11 12  1  0  0  0  0
 11 13  2  0  0  0  0
 13 14  1  0  0  0  0
 14 15  2  0  0  0  0
M  END
> <Acceptable>
true

> <IC50>
N/A

$$$$

Generated by Molecular Materials Informatics

 16 17  0  0  0  0  0  0  0  0999 V2000
   -3.2000    2.7713    0.0000 Cl  0  0  0  0  0  0  0  0  0  0  0  0
   -2.4000    1.3856    0.0000 C   0  0  0  0  0  0  0  0  0  0  0  0
   -3.2000    0.0000    0.0000 C   0  0  0  0  0  0  0  0  0  0  0  0
   -2.4000   -1.3856    0.0000 C   0  0  0  0  0  0  0  0  0  0  0  0
   -0.8000   -1.3856    0.0000 C   0  0  0  0  0  0  0  0  0  0  0  0
    0.0000    0.0000    0.0000 C   0  0  0  0  0  0  0  0  0  0  0  0
   -0.8000    1.3856    0.0000 C   0  0  0  0  0  0  0  0  0  0  0  0
    0.0000    2.7713    0.0000 Cl  0  0  0  0  0  0  0  0  0  0  0  0
    1.6000    0.0000    0.0000 C   0  0  0  0  0  0  0  0  0  0  0  0
    2.4000   -1.3856    0.0000 N   0  0  0  0  0  0  0  0  0  0  0  0
    4.0000   -1.3856    0.0000 N   0  0  0  0  0  0  0  0  0  0  0  0
    4.8000    0.0000    0.0000 C   0  0  0  0  0  0  0  0  0  0  0  0
    6.4000    0.0000    0.0000 N   0  0  0  0  0  0  0  0  0  0  0  0
    4.0000    1.3856    0.0000 N   0  0  0  0  0  0  0  0  0  0  0  0
    2.4000    1.3856    0.0000 C   0  0  0  0  0  0  0  0  0  0  0  0
    1.6000    2.7713    0.0000 N   0  0  0  0  0  0  0  0  0  0  0  0
  1  2  1  0  0  0  0
  2  3  1  0  0  0  0
  2  7  2  0  0  0  0
  3  4  2  0  0  0  0
  4  5  1  0  0  0  0
  5  6  2  0  0  0  0
  6  7  1  0  0  0  0
  6  9  1  0  0  0  0
  7  8  1  0  0  0  0
  9 10  1  0  0  0  0
  9 15  2  0  0  0  0
 10 11  2  0  0  0  0
 11 12  1  0  0  0  0
 12 13  1  0  0  0  0
 12 14  2  0  0  0  0
 14 15  1  0  0  0  0
 15 16  1  0  0  0  0
M  END
> <Acceptable>
true

> <IC50>
229.1

$$$$

Generated by Molecular Materials Informatics

 25 27  0  0  0  0  0  0  0  0999 V2000
   -1.3856    0.8000    0.0000 S   0  0  0  0  0  0  0  0  0  0  0  0
   -1.3856    2.4000    0.0000 O   0  0  0  0  0  0  0  0  0  0  0  0
   -2.7713    0.0000    0.0000 C   0  0  0  0  0  0  0  0  0  0  0  0
   -4.1569    0.8000    0.0000 C   0  0  0  0  0  0  0  0  0  0  0  0
   -4.1569    2.4000    0.0000 N   0  0  0  0  0  0  0  0  0  0  0  0
   -5.5426    3.2000    0.0000 C   0  0  0  0  0  0  0  0  0  0  0  0
   -6.9282    2.4000    0.0000 C   0  0  0  0  0  0  0  0  0  0  0  0
   -6.9282    0.8000    0.0000 C   0  0  0  0  0  0  0  0  0  0  0  0
   -8.3138    0.0000    0.0000 O   0  0  0  0  0  0  0  0  0  0  0  0
   -9.6995    0.8000    0.0000 C   0  0  0  0  0  0  0  0  0  0  0  0
  -11.0851    0.0000    0.0000 C   0  0  0  0  0  0  0  0  0  0  0  0
  -11.0851   -1.6000    0.0000 F   0  0  0  0  0  0  0  0  0  0  0  0
  -12.4708    0.8000    0.0000 F   0  0  0  0  0  0  0  0  0  0  0  0
  -12.4708   -0.8000    0.0000 F   0  0  0  0  0  0  0  0  0  0  0  0
   -5.5426    0.0000    0.0000 C   0  0  0  0  0  0  0  0  0  0  0  0
   -5.5426   -1.6000    0.0000 C   0  0  0  0  0  0  0  0  0  0  0  0
    0.0000    0.0000    0.0000 C   0  0  0  0  0  0  0  0  0  0  0  0
    0.1672   -1.5912    0.0000 N   0  0  0  0  0  0  0  0  0  0  0  0
    1.7323   -1.9239    0.0000 C   0  0  0  0  0  0  0  0  0  0  0  0
    2.5323   -3.3095    0.0000 C   0  0  0  0  0  0  0  0  0  0  0  0
    4.1323   -3.3095    0.0000 C   0  0  0  0  0  0  0  0  0  0  0  0
    4.9323   -1.9239    0.0000 C   0  0  0  0  0  0  0  0  0  0  0  0
    4.1323   -0.5383    0.0000 C   0  0  0  0  0  0  0  0  0  0  0  0
    2.5323   -0.5383    0.0000 C   0  0  0  0  0  0  0  0  0  0  0  0
    1.4617    0.6508    0.0000 N   0  0  0  0  0  0  0  0  0  0  0  0
  1  2  1  1  0  0  0
  1  3  1  0  0  0  0
  1 17  1  0  0  0  0
  3  4  1  0  0  0  0
  4  5  1  0  0  0  0
  4 15  2  0  0  0  0
  5  6  2  0  0  0  0
  6  7  1  0  0  0  0
  7  8  2  0  0  0  0
  8  9  1  0  0  0  0
  8 15  1  0  0  0  0
  9 10  1  0  0  0  0
 10 11  1  0  0  0  0
 11 12  1  0  0  0  0
 11 13  1  0  0  0  0
 11 14  1  0  0  0  0
 15 16  1  0  0  0  0
 17 18  2  0  0  0  0
 17 25  1  0  0  0  0
 18 19  1  0  0  0  0
 19 20  1  0  0  0  0
 19 24  2  0  0  0  0
 20 21  2  0  0  0  0
 21 22  1  0  0  0  0
 22 23  2  0  0  0  0
 23 24  1  0  0  0  0
 24 25  1  0  0  0  0
M  END
> <Acceptable>
true

> <IC50>
N/A

$$$$

Generated by Molecular Materials Informatics

 40 44  0  0  0  0  0  0  0  0999 V2000
    4.1569    7.2000    0.0000 Cl  0  0  0  0  0  0  0  0  0  0  0  0
  -13.3438    3.4254    0.0000 S   0  0  0  0  0  0  0  0  0  0  0  0
   11.0851    9.6000    0.0000 F   0  0  0  0  0  0  0  0  0  0  0  0
   -5.6186    0.1492    0.0000 O   0  0  0  0  0  0  0  0  0  0  0  0
  -13.1766    1.8341    0.0000 O   0  0  0  0  0  0  0  0  0  0  0  0
  -13.5111    5.0166    0.0000 O   0  0  0  0  0  0  0  0  0  0  0  0
    6.9282    5.6000    0.0000 O   0  0  0  0  0  0  0  0  0  0  0  0
   -9.2209    2.4654    0.0000 N   0  0  0  0  0  0  0  0  0  0  0  0
    1.3856    2.4000    0.0000 N   0  0  0  0  0  0  0  0  0  0  0  0
    1.3856   -2.4000    0.0000 N   0  0  0  0  0  0  0  0  0  0  0  0
    2.7713    0.0000    0.0000 N   0  0  0  0  0  0  0  0  0  0  0  0
  -10.8121    2.2982    0.0000 C   0  0  0  0  0  0  0  0  0  0  0  0
  -11.7526    3.5926    0.0000 C   0  0  0  0  0  0  0  0  0  0  0  0
   -8.2804    1.1710    0.0000 C   0  0  0  0  0  0  0  0  0  0  0  0
   -6.6892    1.3383    0.0000 C   0  0  0  0  0  0  0  0  0  0  0  0
   -2.7713    0.0000    0.0000 C   0  0  0  0  0  0  0  0  0  0  0  0
   -4.1569    0.8000    0.0000 C   0  0  0  0  0  0  0  0  0  0  0  0
    0.0000    0.0000    0.0000 C   0  0  0  0  0  0  0  0  0  0  0  0
   -1.3856    0.8000    0.0000 C   0  0  0  0  0  0  0  0  0  0  0  0
   -5.8892    2.7239    0.0000 C   0  0  0  0  0  0  0  0  0  0  0  0
   -4.3242    2.3912    0.0000 C   0  0  0  0  0  0  0  0  0  0  0  0
    0.0000   -1.6000    0.0000 C   0  0  0  0  0  0  0  0  0  0  0  0
   -2.7713   -1.6000    0.0000 C   0  0  0  0  0  0  0  0  0  0  0  0
    1.3856    0.8000    0.0000 C   0  0  0  0  0  0  0  0  0  0  0  0
  -14.9351    3.2581    0.0000 C   0  0  0  0  0  0  0  0  0  0  0  0
   -1.3856   -2.4000    0.0000 C   0  0  0  0  0  0  0  0  0  0  0  0
    2.7713    3.2000    0.0000 C   0  0  0  0  0  0  0  0  0  0  0  0
    2.7713   -1.6000    0.0000 C   0  0  0  0  0  0  0  0  0  0  0  0
    2.7713    4.8000    0.0000 C   0  0  0  0  0  0  0  0  0  0  0  0
    4.1569    2.4000    0.0000 C   0  0  0  0  0  0  0  0  0  0  0  0
    5.5426    4.8000    0.0000 C   0  0  0  0  0  0  0  0  0  0  0  0
    4.1569    5.6000    0.0000 C   0  0  0  0  0  0  0  0  0  0  0  0
    5.5426    3.2000    0.0000 C   0  0  0  0  0  0  0  0  0  0  0  0
    8.3138    4.8000    0.0000 C   0  0  0  0  0  0  0  0  0  0  0  0
    9.6995    5.6000    0.0000 C   0  0  0  0  0  0  0  0  0  0  0  0
    9.6995    7.2000    0.0000 C   0  0  0  0  0  0  0  0  0  0  0  0
   11.0851    4.8000    0.0000 C   0  0  0  0  0  0  0  0  0  0  0  0
   11.0851    8.0000    0.0000 C   0  0  0  0  0  0  0  0  0  0  0  0
   12.4708    5.6000    0.0000 C   0  0  0  0  0  0  0  0  0  0  0  0
   12.4708    7.2000    0.0000 C   0  0  0  0  0  0  0  0  0  0  0  0
  1 32  1  0  0  0  0
  2  5  2  0  0  0  0
  2  6  2  0  0  0  0
  2 13  1  0  0  0  0
  2 25  1  0  0  0  0
  3 38  1  0  0  0  0
  4 15  1  0  0  0  0
  4 17  1  0  0  0  0
  7 31  1  0  0  0  0
  7 34  1  0  0  0  0
  8 12  1  0  0  0  0
  8 14  1  0  0  0  0
  9 24  1  0  0  0  0
  9 27  1  0  0  0  0
 10 22  1  0  0  0  0
 10 28  2  0  0  0  0
 11 24  2  0  0  0  0
 11 28  1  0  0  0  0
 12 13  1  0  0  0  0
 14 15  1  0  0  0  0
 15 20  2  0  0  0  0
 16 17  1  0  0  0  0
 16 19  1  0  0  0  0
 16 23  2  0  0  0  0
 17 21  2  0  0  0  0
 18 19  2  0  0  0  0
 18 22  1  0  0  0  0
 18 24  1  0  0  0  0
 20 21  1  0  0  0  0
 22 26  2  0  0  0  0
 23 26  1  0  0  0  0
 27 29  2  0  0  0  0
 27 30  1  0  0  0  0
 29 32  1  0  0  0  0
 30 33  2  0  0  0  0
 31 32  2  0  0  0  0
 31 33  1  0  0  0  0
 34 35  1  0  0  0  0
 35 36  2  0  0  0  0
 35 37  1  0  0  0  0
 36 38  1  0  0  0  0
 37 39  2  0  0  0  0
 38 40  2  0  0  0  0
 39 40  1  0  0  0  0
M  END
> <Acceptable>
false

> <IC50>
1.11

$$$$

Generated by Molecular Materials Informatics

 22 24  0  0  0  0  0  0  0  0999 V2000
   -6.9282   -4.0000    0.0000 N   0  0  0  0  0  0  0  0  0  0  0  0
   -5.5426   -3.2000    0.0000 C   0  0  0  0  0  0  0  0  0  0  0  0
   -4.1569   -2.4000    0.0000 C   0  0  0  0  0  0  0  0  0  0  0  0
   -2.7713   -3.2000    0.0000 C   0  0  0  0  0  0  0  0  0  0  0  0
   -1.3856   -2.4000    0.0000 C   0  0  0  0  0  0  0  0  0  0  0  0
   -1.3856   -0.8000    0.0000 C   0  0  0  0  0  0  0  0  0  0  0  0
   -2.7713    0.0000    0.0000 C   0  0  0  0  0  0  0  0  0  0  0  0
   -4.1569   -0.8000    0.0000 C   0  0  0  0  0  0  0  0  0  0  0  0
    0.0000    0.0000    0.0000 C   0  0  0  0  0  0  0  0  0  0  0  0
    0.0000    1.6000    0.0000 N   0  0  0  0  0  0  0  0  0  0  0  0
    1.2944    2.5405    0.0000 N   0  0  0  0  0  0  0  0  0  0  0  0
    0.8000    4.0621    0.0000 C   0  0  0  0  0  0  0  0  0  0  0  0
   -0.8000    4.0621    0.0000 N   0  0  0  0  0  0  0  0  0  0  0  0
   -1.2944    2.5405    0.0000 C   0  0  0  0  0  0  0  0  0  0  0  0
    1.3856   -0.8000    0.0000 C   0  0  0  0  0  0  0  0  0  0  0  0
    1.3856   -2.4000    0.0000 C   0  0  0  0  0  0  0  0  0  0  0  0
    2.7713   -3.2000    0.0000 C   0  0  0  0  0  0  0  0  0  0  0  0
    4.1569   -2.4000    0.0000 C   0  0  0  0  0  0  0  0  0  0  0  0
    5.5426   -3.2000    0.0000 C   0  0  0  0  0  0  0  0  0  0  0  0
    6.9282   -4.0000    0.0000 N   0  0  0  0  0  0  0  0  0  0  0  0
    4.1569   -0.8000    0.0000 C   0  0  0  0  0  0  0  0  0  0  0  0
    2.7713    0.0000    0.0000 C   0  0  0  0  0  0  0  0  0  0  0  0
  1  2  3  0  0  0  0
  2  3  1  0  0  0  0
  3  4  1  0  0  0  0
  3  8  2  0  0  0  0
  4  5  2  0  0  0  0
  5  6  1  0  0  0  0
  6  7  2  0  0  0  0
  6  9  1  0  0  0  0
  7  8  1  0  0  0  0
  9 10  1  0  0  0  0
  9 15  1  0  0  0  0
 10 11  1  0  0  0  0
 10 14  1  0  0  0  0
 11 12  2  0  0  0  0
 12 13  1  0  0  0  0
 13 14  2  0  0  0  0
 15 16  1  0  0  0  0
 15 22  2  0  0  0  0
 16 17  2  0  0  0  0
 17 18  1  0  0  0  0
 18 19  1  0  0  0  0
 18 21  2  0  0  0  0
 19 20  3  0  0  0  0
 21 22  1  0  0  0  0
M  END
> <Acceptable>
true

> <IC50>
N/A

$$$$

Generated by Molecular Materials Informatics

 14 16  0  0  0  0  0  0  0  0999 V2000
   -3.6277   -2.0944    0.0000 S   0  0  0  0  0  0  0  0  0  0  0  0
   -4.8167   -1.0238    0.0000 C   0  0  0  0  0  0  0  0  0  0  0  0
   -4.1659    0.4379    0.0000 C   0  0  0  0  0  0  0  0  0  0  0  0
   -2.5747    0.2706    0.0000 N   0  0  0  0  0  0  0  0  0  0  0  0
   -1.1890    1.0706    0.0000 C   0  0  0  0  0  0  0  0  0  0  0  0
    0.0000    0.0000    0.0000 C   0  0  0  0  0  0  0  0  0  0  0  0
   -0.6508   -1.4617    0.0000 N   0  0  0  0  0  0  0  0  0  0  0  0
   -2.2420   -1.2944    0.0000 C   0  0  0  0  0  0  0  0  0  0  0  0
    1.5650    0.3327    0.0000 C   0  0  0  0  0  0  0  0  0  0  0  0
    2.0595    1.8543    0.0000 C   0  0  0  0  0  0  0  0  0  0  0  0
    3.6245    2.1870    0.0000 C   0  0  0  0  0  0  0  0  0  0  0  0
    4.6951    0.9980    0.0000 C   0  0  0  0  0  0  0  0  0  0  0  0
    4.2007   -0.5237    0.0000 C   0  0  0  0  0  0  0  0  0  0  0  0
    2.6356   -0.8564    0.0000 C   0  0  0  0  0  0  0  0  0  0  0  0
  1  2  1  0  0  0  0
  1  8  1  0  0  0  0
  2  3  1  0  0  0  0
  3  4  1  0  0  0  0
  4  5  1  0  0  0  0
  4  8  1  0  0  0  0
  5  6  1  0  0  0  0
  6  7  1  0  0  0  0
  6  9  1  1  0  0  0
  7  8  2  0  0  0  0
  9 10  1  0  0  0  0
  9 14  2  0  0  0  0
 10 11  2  0  0  0  0
 11 12  1  0  0  0  0
 12 13  2  0  0  0  0
 13 14  1  0  0  0  0
M  END
> <Acceptable>
true

> <IC50>
N/A

$$$$

Generated by Molecular Materials Informatics

 12 12  0  0  0  0  0  0  0  0999 V2000
   -0.1492    2.8473    0.0000 O   0  0  0  0  0  0  0  0  0  0  0  0
   -0.8000    1.3856    0.0000 C   0  0  0  0  0  0  0  0  0  0  0  0
    0.0000    0.0000    0.0000 N   0  0  0  0  0  0  0  0  0  0  0  0
   -1.0706   -1.1890    0.0000 C   0  0  0  0  0  0  0  0  0  0  0  0
   -2.5323   -0.5383    0.0000 C   0  0  0  0  0  0  0  0  0  0  0  0
   -2.3650    1.0530    0.0000 C   0  0  0  0  0  0  0  0  0  0  0  0
    1.5912   -0.1672    0.0000 C   0  0  0  0  0  0  0  0  0  0  0  0
    2.5317    1.1272    0.0000 C   0  0  0  0  0  0  0  0  0  0  0  0
    4.1229    0.9599    0.0000 C   0  0  0  0  0  0  0  0  0  0  0  0
    2.2420   -1.6289    0.0000 C   0  0  0  0  0  0  0  0  0  0  0  0
    1.3016   -2.9233    0.0000 O   0  0  0  0  0  0  0  0  0  0  0  0
    3.8332   -1.7962    0.0000 N   0  0  0  0  0  0  0  0  0  0  0  0
  1  2  2  0  0  0  0
  2  3  1  0  0  0  0
  2  6  1  0  0  0  0
  3  4  1  0  0  0  0
  3  7  1  0  0  0  0
  4  5  1  0  0  0  0
  5  6  1  0  0  0  0
  7  8  1  6  0  0  0
  7 10  1  0  0  0  0
  8  9  1  0  0  0  0
 10 11  2  0  0  0  0
 10 12  1  0  0  0  0
M  END
> <Acceptable>
true

> <IC50>
N/A

$$$$

Generated by Molecular Materials Informatics

 21 22  0  0  0  0  0  0  0  0999 V2000
    0.0000    0.0000    0.0000 C   0  0  0  0  0  0  0  0  0  0  0  0
   -1.3856    0.8000    0.0000 N   0  0  0  0  0  0  0  0  0  0  0  0
    1.3856    0.8000    0.0000 C   0  0  0  0  0  0  0  0  0  0  0  0
    0.0000   -1.6000    0.0000 C   0  0  0  0  0  0  0  0  0  0  0  0
   -2.7713    0.0000    0.0000 C   0  0  0  0  0  0  0  0  0  0  0  0
   -1.3856    2.4000    0.0000 C   0  0  0  0  0  0  0  0  0  0  0  0
    1.3856    2.4000    0.0000 N   0  0  0  0  0  0  0  0  0  0  0  0
    2.7713    0.0000    0.0000 O   0  0  0  0  0  0  0  0  0  0  0  0
   -1.3856   -2.4000    0.0000 C   0  0  0  0  0  0  0  0  0  0  0  0
   -2.7713   -1.6000    0.0000 C   0  0  0  0  0  0  0  0  0  0  0  0
   -2.7713    3.2000    0.0000 C   0  0  0  0  0  0  0  0  0  0  0  0
    2.7713    3.2000    0.0000 C   0  0  0  0  0  0  0  0  0  0  0  0
   -2.7713    4.8000    0.0000 C   0  0  0  0  0  0  0  0  0  0  0  0
    4.1569    2.4000    0.0000 C   0  0  0  0  0  0  0  0  0  0  0  0
    2.7713    4.8000    0.0000 C   0  0  0  0  0  0  0  0  0  0  0  0
   -4.1569    5.6000    0.0000 C   0  0  0  0  0  0  0  0  0  0  0  0
    5.5426    3.2000    0.0000 C   0  0  0  0  0  0  0  0  0  0  0  0
    4.1569    0.8000    0.0000 C   0  0  0  0  0  0  0  0  0  0  0  0
    4.1569    5.6000    0.0000 C   0  0  0  0  0  0  0  0  0  0  0  0
    1.3856    5.6000    0.0000 C   0  0  0  0  0  0  0  0  0  0  0  0
    5.5426    4.8000    0.0000 C   0  0  0  0  0  0  0  0  0  0  0  0
  1  2  1  0  0  0  0
  1  3  1  6  0  0  0
  1  4  1  0  0  0  0
  2  5  1  0  0  0  0
  2  6  1  1  0  0  0
  3  7  1  0  0  0  0
  3  8  2  0  0  0  0
  4  9  1  0  0  0  0
  5 10  1  0  0  0  0
  6 11  1  0  0  0  0
  7 12  1  0  0  0  0
  9 10  1  0  0  0  0
 11 13  1  0  0  0  0
 12 14  2  0  0  0  0
 12 15  1  0  0  0  0
 13 16  1  0  0  0  0
 14 17  1  0  0  0  0
 14 18  1  0  0  0  0
 15 19  2  0  0  0  0
 15 20  1  0  0  0  0
 17 21  2  0  0  0  0
 19 21  1  0  0  0  0
M  END
> <Acceptable>
false

> <IC50>
20.7

$$$$

Generated by Molecular Materials Informatics

 26 29  0  0  0  0  0  0  0  0999 V2000
   -4.1569    2.4000    0.0000 F   0  0  0  0  0  0  0  0  0  0  0  0
   -2.7713    1.6000    0.0000 C   0  0  0  0  0  0  0  0  0  0  0  0
   -1.3856    2.4000    0.0000 C   0  0  0  0  0  0  0  0  0  0  0  0
    0.0000    1.6000    0.0000 C   0  0  0  0  0  0  0  0  0  0  0  0
    1.3856    2.4000    0.0000 C   0  0  0  0  0  0  0  0  0  0  0  0
    1.3856    4.0000    0.0000 O   0  0  0  0  0  0  0  0  0  0  0  0
    2.7713    1.6000    0.0000 C   0  0  0  0  0  0  0  0  0  0  0  0
    2.7713    0.0000    0.0000 C   0  0  0  0  0  0  0  0  0  0  0  0
    1.3856   -0.8000    0.0000 N   0  0  0  0  0  0  0  0  0  0  0  0
    0.0000    0.0000    0.0000 C   0  0  0  0  0  0  0  0  0  0  0  0
   -1.3856   -0.8000    0.0000 C   0  0  0  0  0  0  0  0  0  0  0  0
   -1.3856   -2.4000    0.0000 O   0  0  0  0  0  0  0  0  0  0  0  0
    0.0000   -3.2000    0.0000 C   0  0  0  0  0  0  0  0  0  0  0  0
    1.3856   -2.4000    0.0000 C   0  0  0  0  0  0  0  0  0  0  0  0
    2.7713   -3.2000    0.0000 C   0  0  0  0  0  0  0  0  0  0  0  0
   -2.7713    0.0000    0.0000 C   0  0  0  0  0  0  0  0  0  0  0  0
   -4.1569   -0.8000    0.0000 N   0  0  0  0  0  0  0  0  0  0  0  0
   -4.1569   -2.4000    0.0000 C   0  0  0  0  0  0  0  0  0  0  0  0
   -5.5426   -3.2000    0.0000 C   0  0  0  0  0  0  0  0  0  0  0  0
   -6.9282   -2.4000    0.0000 N   0  0  0  0  0  0  0  0  0  0  0  0
   -8.3138   -3.2000    0.0000 C   0  0  0  0  0  0  0  0  0  0  0  0
   -6.9282   -0.8000    0.0000 C   0  0  0  0  0  0  0  0  0  0  0  0
   -5.5426    0.0000    0.0000 C   0  0  0  0  0  0  0  0  0  0  0  0
    4.1569    2.4000    0.0000 C   0  0  0  0  0  0  0  0  0  0  0  0
    4.1569    4.0000    0.0000 O   0  0  0  0  0  0  0  0  0  0  0  0
    5.5426    1.6000    0.0000 O   0  0  0  0  0  0  0  0  0  0  0  0
  1  2  1  0  0  0  0
  2  3  1  0  0  0  0
  2 16  2  0  0  0  0
  3  4  2  0  0  0  0
  4  5  1  0  0  0  0
  4 10  1  0  0  0  0
  5  6  2  0  0  0  0
  5  7  1  0  0  0  0
  7  8  2  0  0  0  0
  7 24  1  0  0  0  0
  8  9  1  0  0  0  0
  9 10  1  0  0  0  0
  9 14  1  0  0  0  0
 10 11  2  0  0  0  0
 11 12  1  0  0  0  0
 11 16  1  0  0  0  0
 12 13  1  0  0  0  0
 13 14  1  0  0  0  0
 14 15  1  6  0  0  0
 16 17  1  0  0  0  0
 17 18  1  0  0  0  0
 17 23  1  0  0  0  0
 18 19  1  0  0  0  0
 19 20  1  0  0  0  0
 20 21  1  0  0  0  0
 20 22  1  0  0  0  0
 22 23  1  0  0  0  0
 24 25  2  0  0  0  0
 24 26  1  0  0  0  0
M  END
> <Acceptable>
true

> <IC50>
912

$$$$

Generated by Molecular Materials Informatics

 19 22  0  0  0  0  0  0  0  0999 V2000
   -5.5426    0.0000    0.0000 O   0  0  0  0  0  0  0  0  0  0  0  0
   -4.1569    0.8000    0.0000 C   0  0  0  0  0  0  0  0  0  0  0  0
   -4.1569    2.4000    0.0000 C   0  0  0  0  0  0  0  0  0  0  0  0
   -2.7713    3.2000    0.0000 C   0  0  0  0  0  0  0  0  0  0  0  0
   -1.3856    2.4000    0.0000 C   0  0  0  0  0  0  0  0  0  0  0  0
    0.0000    3.2000    0.0000 C   0  0  0  0  0  0  0  0  0  0  0  0
    1.3856    2.4000    0.0000 C   0  0  0  0  0  0  0  0  0  0  0  0
    0.2295    2.7215    0.0000 N   0  0  0  0  0  0  0  0  0  0  0  0
   -0.0384    4.2989    0.0000 C   0  0  0  0  0  0  0  0  0  0  0  0
   -0.7556    2.0363    0.0000 C   0  0  0  0  0  0  0  0  0  0  0  0
   -0.8565    0.8405    0.0000 C   0  0  0  0  0  0  0  0  0  0  0  0
    0.0000    0.0000    0.0000 C   0  0  0  0  0  0  0  0  0  0  0  0
    0.0000   -1.6000    0.0000 C   0  0  0  0  0  0  0  0  0  0  0  0
    1.3856   -2.4000    0.0000 C   0  0  0  0  0  0  0  0  0  0  0  0
    2.7713   -1.6000    0.0000 C   0  0  0  0  0  0  0  0  0  0  0  0
    2.7713    0.0000    0.0000 C   0  0  0  0  0  0  0  0  0  0  0  0
    1.3856    0.8000    0.0000 C   0  0  0  0  0  0  0  0  0  0  0  0
   -1.3856    0.8000    0.0000 C   0  0  0  0  0  0  0  0  0  0  0  0
   -2.7713    0.0000    0.0000 C   0  0  0  0  0  0  0  0  0  0  0  0
  1  2  1  0  0  0  0
  2  3  1  0  0  0  0
  2 19  2  0  0  0  0
  3  4  2  0  0  0  0
  4  5  1  0  0  0  0
  5  6  1  0  0  0  0
  5 18  2  0  0  0  0
  7  6  1  6  0  0  0
  7  8  1  0  0  0  0
  7 17  1  0  0  0  0
  8  9  1  1  0  0  0
  8 10  1  0  0  0  0
 10 11  1  0  0  0  0
 11 12  1  0  0  0  0
 12 13  1  0  0  0  0
 12 17  1  0  0  0  0
 12 18  1  6  0  0  0
 13 14  1  0  0  0  0
 14 15  1  0  0  0  0
 15 16  1  0  0  0  0
 17 16  1  6  0  0  0
 18 19  1  0  0  0  0
M  END
> <Acceptable>
true

> <IC50>
N/A

$$$$

Generated by Molecular Materials Informatics

 24 25  0  0  0  0  0  0  0  0999 V2000
    4.1569   -4.0000    0.0000 I   0  0  0  0  0  0  0  0  0  0  0  0
    4.1569   -2.4000    0.0000 C   0  0  0  0  0  0  0  0  0  0  0  0
    2.7713   -1.6000    0.0000 C   0  0  0  0  0  0  0  0  0  0  0  0
    2.7713    0.0000    0.0000 C   0  0  0  0  0  0  0  0  0  0  0  0
    1.3856    0.8000    0.0000 O   0  0  0  0  0  0  0  0  0  0  0  0
    0.0000    0.0000    0.0000 C   0  0  0  0  0  0  0  0  0  0  0  0
    0.0000   -1.6000    0.0000 C   0  0  0  0  0  0  0  0  0  0  0  0
    1.3856   -2.4000    0.0000 I   0  0  0  0  0  0  0  0  0  0  0  0
   -1.3856   -2.4000    0.0000 C   0  0  0  0  0  0  0  0  0  0  0  0
   -2.7713   -1.6000    0.0000 C   0  0  0  0  0  0  0  0  0  0  0  0
   -2.7713    0.0000    0.0000 C   0  0  0  0  0  0  0  0  0  0  0  0
   -1.3856    0.8000    0.0000 C   0  0  0  0  0  0  0  0  0  0  0  0
   -1.3856    2.4000    0.0000 I   0  0  0  0  0  0  0  0  0  0  0  0
   -4.1569   -2.4000    0.0000 C   0  0  0  0  0  0  0  0  0  0  0  0
   -5.5426   -1.6000    0.0000 C   0  0  0  0  0  0  0  0  0  0  0  0
   -5.5426    0.0000    0.0000 N   0  0  0  0  0  0  0  0  0  0  0  0
   -6.9282   -2.4000    0.0000 C   0  0  0  0  0  0  0  0  0  0  0  0
   -6.9282   -4.0000    0.0000 O   0  0  0  0  0  0  0  0  0  0  0  0
   -8.3138   -1.6000    0.0000 O   0  0  0  0  0  0  0  0  0  0  0  0
    4.1569    0.8000    0.0000 C   0  0  0  0  0  0  0  0  0  0  0  0
    5.5426    0.0000    0.0000 C   0  0  0  0  0  0  0  0  0  0  0  0
    6.9282    0.8000    0.0000 I   0  0  0  0  0  0  0  0  0  0  0  0
    5.5426   -1.6000    0.0000 C   0  0  0  0  0  0  0  0  0  0  0  0
    6.9282   -2.4000    0.0000 O   0  0  0  0  0  0  0  0  0  0  0  0
  1  2  1  0  0  0  0
  2  3  1  0  0  0  0
  2 23  2  0  0  0  0
  3  4  2  0  0  0  0
  4  5  1  0  0  0  0
  4 20  1  0  0  0  0
  5  6  1  0  0  0  0
  6  7  1  0  0  0  0
  6 12  2  0  0  0  0
  7  8  1  0  0  0  0
  7  9  2  0  0  0  0
  9 10  1  0  0  0  0
 10 11  2  0  0  0  0
 10 14  1  0  0  0  0
 11 12  1  0  0  0  0
 12 13  1  0  0  0  0
 14 15  1  0  0  0  0
 15 16  1  1  0  0  0
 15 17  1  0  0  0  0
 17 18  2  0  0  0  0
 17 19  1  0  0  0  0
 20 21  2  0  0  0  0
 21 22  1  0  0  0  0
 21 23  1  0  0  0  0
 23 24  1  0  0  0  0
M  END
> <Acceptable>
true

> <IC50>
N/A

$$$$

Generated by Molecular Materials Informatics

 36 39  0  0  0  0  0  0  0  0999 V2000
    0.0000    6.4000    0.0000 F   0  0  0  0  0  0  0  0  0  0  0  0
    0.0000    4.8000    0.0000 C   0  0  0  0  0  0  0  0  0  0  0  0
    1.3856    4.0000    0.0000 C   0  0  0  0  0  0  0  0  0  0  0  0
    1.3856    2.4000    0.0000 C   0  0  0  0  0  0  0  0  0  0  0  0
    0.0000    1.6000    0.0000 C   0  0  0  0  0  0  0  0  0  0  0  0
   -1.3856    2.4000    0.0000 C   0  0  0  0  0  0  0  0  0  0  0  0
   -1.3856    4.0000    0.0000 C   0  0  0  0  0  0  0  0  0  0  0  0
    0.0000    0.0000    0.0000 C   0  0  0  0  0  0  0  0  0  0  0  0
   -1.3856   -0.8000    0.0000 C   0  0  0  0  0  0  0  0  0  0  0  0
   -2.7713    0.0000    0.0000 C   0  0  0  0  0  0  0  0  0  0  0  0
   -4.1569   -0.8000    0.0000 C   0  0  0  0  0  0  0  0  0  0  0  0
   -5.5426    0.0000    0.0000 N   0  0  0  0  0  0  0  0  0  0  0  0
   -6.9282   -0.8000    0.0000 C   0  0  0  0  0  0  0  0  0  0  0  0
   -8.3138    0.0000    0.0000 C   0  0  0  0  0  0  0  0  0  0  0  0
   -8.3138    1.6000    0.0000 N   0  0  0  0  0  0  0  0  0  0  0  0
   -6.9282    2.4000    0.0000 C   0  0  0  0  0  0  0  0  0  0  0  0
   -5.5426    1.6000    0.0000 C   0  0  0  0  0  0  0  0  0  0  0  0
   -9.6995    2.4000    0.0000 C   0  0  0  0  0  0  0  0  0  0  0  0
  -11.0851    1.6000    0.0000 C   0  0  0  0  0  0  0  0  0  0  0  0
  -11.0851    0.0000    0.0000 O   0  0  0  0  0  0  0  0  0  0  0  0
  -12.4708    2.4000    0.0000 N   0  0  0  0  0  0  0  0  0  0  0  0
  -13.8564    1.6000    0.0000 C   0  0  0  0  0  0  0  0  0  0  0  0
  -13.8564    0.0000    0.0000 C   0  0  0  0  0  0  0  0  0  0  0  0
  -12.4708   -0.8000    0.0000 C   0  0  0  0  0  0  0  0  0  0  0  0
  -15.2420   -0.8000    0.0000 C   0  0  0  0  0  0  0  0  0  0  0  0
  -16.6277    0.0000    0.0000 C   0  0  0  0  0  0  0  0  0  0  0  0
  -16.6277    1.6000    0.0000 C   0  0  0  0  0  0  0  0  0  0  0  0
  -15.2420    2.4000    0.0000 C   0  0  0  0  0  0  0  0  0  0  0  0
  -15.2420    4.0000    0.0000 C   0  0  0  0  0  0  0  0  0  0  0  0
    1.3856   -0.8000    0.0000 C   0  0  0  0  0  0  0  0  0  0  0  0
    2.7713    0.0000    0.0000 C   0  0  0  0  0  0  0  0  0  0  0  0
    4.1569   -0.8000    0.0000 C   0  0  0  0  0  0  0  0  0  0  0  0
    4.1569   -2.4000    0.0000 C   0  0  0  0  0  0  0  0  0  0  0  0
    5.5426   -3.2000    0.0000 F   0  0  0  0  0  0  0  0  0  0  0  0
    2.7713   -3.2000    0.0000 C   0  0  0  0  0  0  0  0  0  0  0  0
    1.3856   -2.4000    0.0000 C   0  0  0  0  0  0  0  0  0  0  0  0
  1  2  1  0  0  0  0
  2  3  1  0  0  0  0
  2  7  2  0  0  0  0
  3  4  2  0  0  0  0
  4  5  1  0  0  0  0
  5  6  2  0  0  0  0
  5  8  1  0  0  0  0
  6  7  1  0  0  0  0
  8  9  1  0  0  0  0
  8 30  1  0  0  0  0
  9 10  1  0  0  0  0
 10 11  1  0  0  0  0
 12 11  1  6  0  0  0
 12 13  1  0  0  0  0
 12 17  1  0  0  0  0
 13 14  1  0  0  0  0
 14 15  1  0  0  0  0
 15 16  1  0  0  0  0
 15 18  1  1  0  0  0
 16 17  1  0  0  0  0
 18 19  1  0  0  0  0
 19 20  2  0  0  0  0
 19 21  1  0  0  0  0
 21 22  1  0  0  0  0
 22 23  1  0  0  0  0
 22 28  2  0  0  0  0
 23 24  1  0  0  0  0
 23 25  2  0  0  0  0
 25 26  1  0  0  0  0
 26 27  2  0  0  0  0
 27 28  1  0  0  0  0
 28 29  1  0  0  0  0
 30 31  1  0  0  0  0
 30 36  2  0  0  0  0
 31 32  2  0  0  0  0
 32 33  1  0  0  0  0
 33 34  1  0  0  0  0
 33 35  2  0  0  0  0
 35 36  1  0  0  0  0
M  END
> <Acceptable>
false

> <IC50>
0.0158

$$$$

Generated by Molecular Materials Informatics

 17 17  0  0  0  0  0  0  0  0999 V2000
   -2.7713   -1.6000    0.0000 O   0  0  0  0  0  0  0  0  0  0  0  0
   -5.5426    0.0000    0.0000 N   0  0  0  0  0  0  0  0  0  0  0  0
   -1.3856    0.8000    0.0000 N   0  0  0  0  0  0  0  0  0  0  0  0
   -4.1569    0.8000    0.0000 C   0  0  0  0  0  0  0  0  0  0  0  0
   -5.5426   -1.6000    0.0000 C   0  0  0  0  0  0  0  0  0  0  0  0
   -6.9282    0.8000    0.0000 C   0  0  0  0  0  0  0  0  0  0  0  0
    0.0000    0.0000    0.0000 C   0  0  0  0  0  0  0  0  0  0  0  0
   -2.7713    0.0000    0.0000 C   0  0  0  0  0  0  0  0  0  0  0  0
    0.0000   -1.6000    0.0000 C   0  0  0  0  0  0  0  0  0  0  0  0
    1.3856    0.8000    0.0000 C   0  0  0  0  0  0  0  0  0  0  0  0
   -6.9282   -2.4000    0.0000 C   0  0  0  0  0  0  0  0  0  0  0  0
   -8.3138    0.0000    0.0000 C   0  0  0  0  0  0  0  0  0  0  0  0
    1.3856   -2.4000    0.0000 C   0  0  0  0  0  0  0  0  0  0  0  0
    2.7713    0.0000    0.0000 C   0  0  0  0  0  0  0  0  0  0  0  0
   -1.3856   -2.4000    0.0000 C   0  0  0  0  0  0  0  0  0  0  0  0
    1.3856    2.4000    0.0000 C   0  0  0  0  0  0  0  0  0  0  0  0
    2.7713   -1.6000    0.0000 C   0  0  0  0  0  0  0  0  0  0  0  0
  1  8  2  0  0  0  0
  2  4  1  0  0  0  0
  2  5  1  0  0  0  0
  2  6  1  0  0  0  0
  3  7  1  0  0  0  0
  3  8  1  0  0  0  0
  4  8  1  0  0  0  0
  5 11  1  0  0  0  0
  6 12  1  0  0  0  0
  7  9  2  0  0  0  0
  7 10  1  0  0  0  0
  9 13  1  0  0  0  0
  9 15  1  0  0  0  0
 10 14  2  0  0  0  0
 10 16  1  0  0  0  0
 13 17  2  0  0  0  0
 14 17  1  0  0  0  0
M  END
> <Acceptable>
true

> <IC50>
263

$$$$

Generated by Molecular Materials Informatics

 29 30  0  0  0  0  0  0  0  0999 V2000
    0.2585    3.3317    0.0000 O   0  0  0  0  0  0  0  0  0  0  0  0
    1.5529    2.3912    0.0000 C   0  0  0  0  0  0  0  0  0  0  0  0
    3.0146    3.0420    0.0000 O   0  0  0  0  0  0  0  0  0  0  0  0
    1.3856    0.8000    0.0000 C   0  0  0  0  0  0  0  0  0  0  0  0
    0.0000    0.0000    0.0000 N   0  0  0  0  0  0  0  0  0  0  0  0
    0.3327   -1.5650    0.0000 C   0  0  0  0  0  0  0  0  0  0  0  0
    1.9239   -1.7323    0.0000 C   0  0  0  0  0  0  0  0  0  0  0  0
    2.5747   -0.2706    0.0000 C   0  0  0  0  0  0  0  0  0  0  0  0
   -1.4617    0.6508    0.0000 C   0  0  0  0  0  0  0  0  0  0  0  0
   -1.6289    2.2420    0.0000 O   0  0  0  0  0  0  0  0  0  0  0  0
   -2.7561   -0.2897    0.0000 C   0  0  0  0  0  0  0  0  0  0  0  0
   -4.2178    0.3611    0.0000 N   0  0  0  0  0  0  0  0  0  0  0  0
   -5.6558   -0.3403    0.0000 C   0  0  0  0  0  0  0  0  0  0  0  0
   -5.7675   -1.9364    0.0000 C   0  0  0  0  0  0  0  0  0  0  0  0
   -7.2055   -2.6378    0.0000 C   0  0  0  0  0  0  0  0  0  0  0  0
   -7.3171   -4.2339    0.0000 C   0  0  0  0  0  0  0  0  0  0  0  0
   -8.7552   -4.9353    0.0000 C   0  0  0  0  0  0  0  0  0  0  0  0
   -8.8668   -6.5314    0.0000 C   0  0  0  0  0  0  0  0  0  0  0  0
   -7.5404   -7.4261    0.0000 C   0  0  0  0  0  0  0  0  0  0  0  0
   -6.1023   -6.7247    0.0000 C   0  0  0  0  0  0  0  0  0  0  0  0
   -5.9907   -5.1286    0.0000 C   0  0  0  0  0  0  0  0  0  0  0  0
   -6.9823    0.5544    0.0000 C   0  0  0  0  0  0  0  0  0  0  0  0
   -6.8707    2.1505    0.0000 O   0  0  0  0  0  0  0  0  0  0  0  0
   -8.4204   -0.1470    0.0000 O   0  0  0  0  0  0  0  0  0  0  0  0
   -2.5889   -1.8809    0.0000 C   0  0  0  0  0  0  0  0  0  0  0  0
   -1.1272   -2.5317    0.0000 C   0  0  0  0  0  0  0  0  0  0  0  0
   -0.9599   -4.1229    0.0000 C   0  0  0  0  0  0  0  0  0  0  0  0
    0.5017   -4.7737    0.0000 C   0  0  0  0  0  0  0  0  0  0  0  0
    0.6690   -6.3649    0.0000 N   0  0  0  0  0  0  0  0  0  0  0  0
  1  2  2  0  0  0  0
  2  3  1  0  0  0  0
  4  2  1  6  0  0  0
  4  5  1  0  0  0  0
  4  8  1  0  0  0  0
  5  6  1  0  0  0  0
  5  9  1  0  0  0  0
  6  7  1  0  0  0  0
  7  8  1  0  0  0  0
  9 10  2  0  0  0  0
  9 11  1  0  0  0  0
 11 12  1  0  0  0  0
 11 25  1  6  0  0  0
 12 13  1  0  0  0  0
 13 14  1  6  0  0  0
 13 22  1  0  0  0  0
 14 15  1  0  0  0  0
 15 16  1  0  0  0  0
 16 17  1  0  0  0  0
 16 21  2  0  0  0  0
 17 18  2  0  0  0  0
 18 19  1  0  0  0  0
 19 20  2  0  0  0  0
 20 21  1  0  0  0  0
 22 23  2  0  0  0  0
 22 24  1  0  0  0  0
 25 26  1  0  0  0  0
 26 27  1  0  0  0  0
 27 28  1  0  0  0  0
 28 29  1  0  0  0  0
M  END
> <Acceptable>
true

> <IC50>
N/A

$$$$

Generated by Molecular Materials Informatics

 33 37  0  0  0  0  0  0  0  0999 V2000
    8.0000    2.7713    0.0000 S   0  0  0  0  0  0  0  0  0  0  0  0
    0.8000    1.3856    0.0000 O   0  0  0  0  0  0  0  0  0  0  0  0
    3.2000   -2.7713    0.0000 O   0  0  0  0  0  0  0  0  0  0  0  0
    6.6144    3.5713    0.0000 O   0  0  0  0  0  0  0  0  0  0  0  0
    9.3856    1.9713    0.0000 O   0  0  0  0  0  0  0  0  0  0  0  0
   -3.2000    0.0000    0.0000 N   0  0  0  0  0  0  0  0  0  0  0  0
    7.2000    1.3856    0.0000 N   0  0  0  0  0  0  0  0  0  0  0  0
  -13.6000   -1.3856    0.0000 N   0  0  0  0  0  0  0  0  0  0  0  0
    0.0000    0.0000    0.0000 C   0  0  0  0  0  0  0  0  0  0  0  0
   -4.8000    0.0000    0.0000 C   0  0  0  0  0  0  0  0  0  0  0  0
   -0.8000    1.3856    0.0000 C   0  0  0  0  0  0  0  0  0  0  0  0
   -0.8000   -1.3856    0.0000 C   0  0  0  0  0  0  0  0  0  0  0  0
   -2.4000   -1.3856    0.0000 C   0  0  0  0  0  0  0  0  0  0  0  0
   -2.4000    1.3856    0.0000 C   0  0  0  0  0  0  0  0  0  0  0  0
    0.8000   -1.3856    0.0000 C   0  0  0  0  0  0  0  0  0  0  0  0
   -5.6000    1.3856    0.0000 C   0  0  0  0  0  0  0  0  0  0  0  0
   -5.6000   -1.3856    0.0000 C   0  0  0  0  0  0  0  0  0  0  0  0
   -7.2000    1.3856    0.0000 C   0  0  0  0  0  0  0  0  0  0  0  0
   -7.2000   -1.3856    0.0000 C   0  0  0  0  0  0  0  0  0  0  0  0
   -8.0000    0.0000    0.0000 C   0  0  0  0  0  0  0  0  0  0  0  0
    2.4000   -1.3856    0.0000 C   0  0  0  0  0  0  0  0  0  0  0  0
    2.4000    1.3856    0.0000 C   0  0  0  0  0  0  0  0  0  0  0  0
    3.2000    0.0000    0.0000 C   0  0  0  0  0  0  0  0  0  0  0  0
   -8.0000   -2.7713    0.0000 C   0  0  0  0  0  0  0  0  0  0  0  0
   -9.6000    0.0000    0.0000 C   0  0  0  0  0  0  0  0  0  0  0  0
    3.2000    2.7713    0.0000 C   0  0  0  0  0  0  0  0  0  0  0  0
    4.8000    0.0000    0.0000 C   0  0  0  0  0  0  0  0  0  0  0  0
   -9.6000   -2.7713    0.0000 C   0  0  0  0  0  0  0  0  0  0  0  0
  -10.4000   -1.3856    0.0000 C   0  0  0  0  0  0  0  0  0  0  0  0
    5.6000    1.3856    0.0000 C   0  0  0  0  0  0  0  0  0  0  0  0
    4.8000    2.7713    0.0000 C   0  0  0  0  0  0  0  0  0  0  0  0
  -12.0000   -1.3856    0.0000 C   0  0  0  0  0  0  0  0  0  0  0  0
    8.8000    4.1569    0.0000 C   0  0  0  0  0  0  0  0  0  0  0  0
  1  4  2  0  0  0  0
  1  5  2  0  0  0  0
  1  7  1  0  0  0  0
  1 33  1  0  0  0  0
  2  9  1  0  0  0  0
  2 22  1  0  0  0  0
  3 21  2  0  0  0  0
  6 10  1  0  0  0  0
  6 13  1  1  0  0  0
  6 14  1  0  0  0  0
  7 30  1  0  0  0  0
  8 32  3  0  0  0  0
  9 11  1  0  0  0  0
  9 12  1  0  0  0  0
  9 15  1  6  0  0  0
 10 16  1  1  0  0  0
 10 17  1  0  0  0  0
 11 14  1  0  0  0  0
 12 13  1  0  0  0  0
 15 21  1  0  0  0  0
 16 18  1  0  0  0  0
 17 19  1  0  0  0  0
 18 20  1  0  0  0  0
 19 20  2  0  0  0  0
 19 24  1  0  0  0  0
 20 25  1  0  0  0  0
 21 23  1  0  0  0  0
 22 23  2  0  0  0  0
 22 26  1  0  0  0  0
 23 27  1  0  0  0  0
 24 28  2  0  0  0  0
 25 29  2  0  0  0  0
 26 31  2  0  0  0  0
 27 30  2  0  0  0  0
 28 29  1  0  0  0  0
 29 32  1  0  0  0  0
 30 31  1  0  0  0  0
M  END
> <Acceptable>
false

> <IC50>
0.34

$$$$

Generated by Molecular Materials Informatics

 25 27  0  0  0  0  0  0  0  0999 V2000
   -4.1569    2.4000    0.0000 F   0  0  0  0  0  0  0  0  0  0  0  0
   -2.7713    1.6000    0.0000 C   0  0  0  0  0  0  0  0  0  0  0  0
   -1.3856    2.4000    0.0000 C   0  0  0  0  0  0  0  0  0  0  0  0
    0.0000    1.6000    0.0000 C   0  0  0  0  0  0  0  0  0  0  0  0
    1.3856    2.4000    0.0000 C   0  0  0  0  0  0  0  0  0  0  0  0
    1.3856    4.0000    0.0000 O   0  0  0  0  0  0  0  0  0  0  0  0
    2.7713    1.6000    0.0000 C   0  0  0  0  0  0  0  0  0  0  0  0
    2.7713    0.0000    0.0000 C   0  0  0  0  0  0  0  0  0  0  0  0
    1.3856   -0.8000    0.0000 N   0  0  0  0  0  0  0  0  0  0  0  0
    1.3856   -2.4000    0.0000 C   0  0  0  0  0  0  0  0  0  0  0  0
    2.7713   -3.2000    0.0000 C   0  0  0  0  0  0  0  0  0  0  0  0
    0.0000    0.0000    0.0000 C   0  0  0  0  0  0  0  0  0  0  0  0
   -1.3856   -0.8000    0.0000 C   0  0  0  0  0  0  0  0  0  0  0  0
   -1.3856   -2.4000    0.0000 F   0  0  0  0  0  0  0  0  0  0  0  0
   -2.7713    0.0000    0.0000 C   0  0  0  0  0  0  0  0  0  0  0  0
   -4.1569   -0.8000    0.0000 N   0  0  0  0  0  0  0  0  0  0  0  0
   -4.1569   -2.4000    0.0000 C   0  0  0  0  0  0  0  0  0  0  0  0
   -5.5426   -3.2000    0.0000 C   0  0  0  0  0  0  0  0  0  0  0  0
   -6.9282   -2.4000    0.0000 N   0  0  0  0  0  0  0  0  0  0  0  0
   -6.9282   -0.8000    0.0000 C   0  0  0  0  0  0  0  0  0  0  0  0
   -8.3138    0.0000    0.0000 C   0  0  0  0  0  0  0  0  0  0  0  0
   -5.5426    0.0000    0.0000 C   0  0  0  0  0  0  0  0  0  0  0  0
    4.1569    2.4000    0.0000 C   0  0  0  0  0  0  0  0  0  0  0  0
    4.1569    4.0000    0.0000 O   0  0  0  0  0  0  0  0  0  0  0  0
    5.5426    1.6000    0.0000 O   0  0  0  0  0  0  0  0  0  0  0  0
  1  2  1  0  0  0  0
  2  3  1  0  0  0  0
  2 15  2  0  0  0  0
  3  4  2  0  0  0  0
  4  5  1  0  0  0  0
  4 12  1  0  0  0  0
  5  6  2  0  0  0  0
  5  7  1  0  0  0  0
  7  8  2  0  0  0  0
  7 23  1  0  0  0  0
  8  9  1  0  0  0  0
  9 10  1  0  0  0  0
  9 12  1  0  0  0  0
 10 11  1  0  0  0  0
 12 13  2  0  0  0  0
 13 14  1  0  0  0  0
 13 15  1  0  0  0  0
 15 16  1  0  0  0  0
 16 17  1  0  0  0  0
 16 22  1  0  0  0  0
 17 18  1  0  0  0  0
 18 19  1  0  0  0  0
 19 20  1  0  0  0  0
 20 21  1  6  0  0  0
 20 22  1  0  0  0  0
 23 24  2  0  0  0  0
 23 25  1  0  0  0  0
M  END
> <Acceptable>
true

> <IC50>
2400

$$$$

Generated by Molecular Materials Informatics

 15 15  0  0  0  0  0  0  0  0999 V2000
   -4.8000   -2.7713    0.0000 Cl  0  0  0  0  0  0  0  0  0  0  0  0
   -4.0000   -1.3856    0.0000 C   0  0  0  0  0  0  0  0  0  0  0  0
   -2.4000   -1.3856    0.0000 C   0  0  0  0  0  0  0  0  0  0  0  0
   -1.6000    0.0000    0.0000 N   0  0  0  0  0  0  0  0  0  0  0  0
   -2.4000    1.3856    0.0000 N   0  0  0  0  0  0  0  0  0  0  0  0
   -4.0000    1.3856    0.0000 O   0  0  0  0  0  0  0  0  0  0  0  0
    0.0000    0.0000    0.0000 C   0  0  0  0  0  0  0  0  0  0  0  0
    0.8000   -1.3856    0.0000 O   0  0  0  0  0  0  0  0  0  0  0  0
    0.8000    1.3856    0.0000 N   0  0  0  0  0  0  0  0  0  0  0  0
    2.4000    1.3856    0.0000 C   0  0  0  0  0  0  0  0  0  0  0  0
    3.2000    0.0000    0.0000 C   0  0  0  0  0  0  0  0  0  0  0  0
    4.8000    0.0000    0.0000 C   0  0  0  0  0  0  0  0  0  0  0  0
    5.6000    1.3856    0.0000 C   0  0  0  0  0  0  0  0  0  0  0  0
    4.8000    2.7713    0.0000 C   0  0  0  0  0  0  0  0  0  0  0  0
    3.2000    2.7713    0.0000 C   0  0  0  0  0  0  0  0  0  0  0  0
  1  2  1  0  0  0  0
  2  3  1  0  0  0  0
  3  4  1  0  0  0  0
  4  5  1  0  0  0  0
  4  7  1  0  0  0  0
  5  6  2  0  0  0  0
  7  8  2  0  0  0  0
  7  9  1  0  0  0  0
  9 10  1  0  0  0  0
 10 11  1  0  0  0  0
 10 15  1  0  0  0  0
 11 12  1  0  0  0  0
 12 13  1  0  0  0  0
 13 14  1  0  0  0  0
 14 15  1  0  0  0  0
M  END
> <Acceptable>
true

> <IC50>
N/A

$$$$

Generated by Molecular Materials Informatics

 34 37  0  0  0  0  0  0  0  0999 V2000
  -13.2310    1.2887    0.0000 Cl  0  0  0  0  0  0  0  0  0  0  0  0
  -11.6553    1.5665    0.0000 C   0  0  0  0  0  0  0  0  0  0  0  0
  -10.6268    0.3408    0.0000 C   0  0  0  0  0  0  0  0  0  0  0  0
   -9.0511    0.6187    0.0000 C   0  0  0  0  0  0  0  0  0  0  0  0
   -8.5039    2.1222    0.0000 C   0  0  0  0  0  0  0  0  0  0  0  0
   -9.5324    3.3478    0.0000 C   0  0  0  0  0  0  0  0  0  0  0  0
  -11.1080    3.0700    0.0000 C   0  0  0  0  0  0  0  0  0  0  0  0
   -6.9282    2.4000    0.0000 C   0  0  0  0  0  0  0  0  0  0  0  0
   -7.4754    3.9035    0.0000 O   0  0  0  0  0  0  0  0  0  0  0  0
   -6.9282    0.8000    0.0000 C   0  0  0  0  0  0  0  0  0  0  0  0
   -5.5426    0.0000    0.0000 C   0  0  0  0  0  0  0  0  0  0  0  0
   -4.1569    0.8000    0.0000 N   0  0  0  0  0  0  0  0  0  0  0  0
   -4.1569    2.4000    0.0000 C   0  0  0  0  0  0  0  0  0  0  0  0
   -5.5426    3.2000    0.0000 C   0  0  0  0  0  0  0  0  0  0  0  0
   -2.7713    0.0000    0.0000 C   0  0  0  0  0  0  0  0  0  0  0  0
   -1.3856    0.8000    0.0000 C   0  0  0  0  0  0  0  0  0  0  0  0
    0.0000    0.0000    0.0000 C   0  0  0  0  0  0  0  0  0  0  0  0
    0.8000    1.3856    0.0000 C   0  0  0  0  0  0  0  0  0  0  0  0
    2.4000    1.3856    0.0000 C   0  0  0  0  0  0  0  0  0  0  0  0
    3.2000    2.7713    0.0000 C   0  0  0  0  0  0  0  0  0  0  0  0
    2.4000    4.1569    0.0000 C   0  0  0  0  0  0  0  0  0  0  0  0
    0.8000    4.1569    0.0000 C   0  0  0  0  0  0  0  0  0  0  0  0
    0.0000    2.7713    0.0000 C   0  0  0  0  0  0  0  0  0  0  0  0
    1.3856   -0.8000    0.0000 C   0  0  0  0  0  0  0  0  0  0  0  0
    1.3856   -2.4000    0.0000 C   0  0  0  0  0  0  0  0  0  0  0  0
    2.7713   -3.2000    0.0000 C   0  0  0  0  0  0  0  0  0  0  0  0
    4.1569   -2.4000    0.0000 C   0  0  0  0  0  0  0  0  0  0  0  0
    4.1569   -0.8000    0.0000 C   0  0  0  0  0  0  0  0  0  0  0  0
    2.7713    0.0000    0.0000 C   0  0  0  0  0  0  0  0  0  0  0  0
   -0.8000   -1.3856    0.0000 C   0  0  0  0  0  0  0  0  0  0  0  0
   -2.4000   -1.3856    0.0000 O   0  0  0  0  0  0  0  0  0  0  0  0
   -0.8000   -2.9856    0.0000 N   0  0  0  0  0  0  0  0  0  0  0  0
    0.5856   -3.7856    0.0000 C   0  0  0  0  0  0  0  0  0  0  0  0
   -2.1856   -3.7856    0.0000 C   0  0  0  0  0  0  0  0  0  0  0  0
  1  2  1  0  0  0  0
  2  3  1  0  0  0  0
  2  7  2  0  0  0  0
  3  4  2  0  0  0  0
  4  5  1  0  0  0  0
  5  6  2  0  0  0  0
  5  8  1  0  0  0  0
  6  7  1  0  0  0  0
  8  9  1  1  0  0  0
  8 10  1  0  0  0  0
  8 14  1  0  0  0  0
 10 11  1  0  0  0  0
 11 12  1  0  0  0  0
 12 13  1  0  0  0  0
 12 15  1  6  0  0  0
 13 14  1  0  0  0  0
 15 16  1  0  0  0  0
 16 17  1  0  0  0  0
 17 18  1  0  0  0  0
 17 24  1  0  0  0  0
 17 30  1  0  0  0  0
 18 19  1  0  0  0  0
 18 23  2  0  0  0  0
 19 20  2  0  0  0  0
 20 21  1  0  0  0  0
 21 22  2  0  0  0  0
 22 23  1  0  0  0  0
 24 25  1  0  0  0  0
 24 29  2  0  0  0  0
 25 26  2  0  0  0  0
 26 27  1  0  0  0  0
 27 28  2  0  0  0  0
 28 29  1  0  0  0  0
 30 31  2  0  0  0  0
 30 32  1  0  0  0  0
 32 33  1  0  0  0  0
 32 34  1  0  0  0  0
M  END
> <Acceptable>
true

> <IC50>
N/A

$$$$

Generated by Molecular Materials Informatics

 46 49  0  0  0  0  0  0  0  0999 V2000
   -1.6000   -2.7713    0.0000 O   0  0  0  0  0  0  0  0  0  0  0  0
   -2.4000   -1.3856    0.0000 C   0  0  0  0  0  0  0  0  0  0  0  0
   -4.0000   -1.3856    0.0000 N   0  0  0  0  0  0  0  0  0  0  0  0
   -4.8000    0.0000    0.0000 C   0  0  0  0  0  0  0  0  0  0  0  0
   -4.0000    1.3856    0.0000 C   0  0  0  0  0  0  0  0  0  0  0  0
   -2.4000    1.3856    0.0000 C   0  0  0  0  0  0  0  0  0  0  0  0
   -1.6000    0.0000    0.0000 N   0  0  0  0  0  0  0  0  0  0  0  0
    0.0000    0.0000    0.0000 C   0  0  0  0  0  0  0  0  0  0  0  0
    0.8000    1.3856    0.0000 C   0  0  0  0  0  0  0  0  0  0  0  0
    2.4000    1.3856    0.0000 O   0  0  0  0  0  0  0  0  0  0  0  0
    0.0000    2.7713    0.0000 N   0  0  0  0  0  0  0  0  0  0  0  0
    0.8000    4.1569    0.0000 C   0  0  0  0  0  0  0  0  0  0  0  0
   -0.2285    5.3826    0.0000 C   0  0  0  0  0  0  0  0  0  0  0  0
   -1.8042    5.1048    0.0000 C   0  0  0  0  0  0  0  0  0  0  0  0
   -2.8326    6.3304    0.0000 C   0  0  0  0  0  0  0  0  0  0  0  0
   -4.4083    6.0526    0.0000 C   0  0  0  0  0  0  0  0  0  0  0  0
   -4.9555    4.5491    0.0000 C   0  0  0  0  0  0  0  0  0  0  0  0
   -3.9271    3.3234    0.0000 C   0  0  0  0  0  0  0  0  0  0  0  0
   -2.3514    3.6012    0.0000 C   0  0  0  0  0  0  0  0  0  0  0  0
    2.1856    4.9569    0.0000 C   0  0  0  0  0  0  0  0  0  0  0  0
    3.5713    4.1569    0.0000 C   0  0  0  0  0  0  0  0  0  0  0  0
    3.5713    2.5569    0.0000 O   0  0  0  0  0  0  0  0  0  0  0  0
    4.9569    4.9569    0.0000 C   0  0  0  0  0  0  0  0  0  0  0  0
    6.3426    4.1569    0.0000 N   0  0  0  0  0  0  0  0  0  0  0  0
    7.7282    4.9569    0.0000 C   0  0  0  0  0  0  0  0  0  0  0  0
    7.7282    6.5569    0.0000 O   0  0  0  0  0  0  0  0  0  0  0  0
    9.1138    4.1569    0.0000 C   0  0  0  0  0  0  0  0  0  0  0  0
   10.4995    4.9569    0.0000 O   0  0  0  0  0  0  0  0  0  0  0  0
   11.8851    4.1569    0.0000 C   0  0  0  0  0  0  0  0  0  0  0  0
   11.8851    2.5569    0.0000 C   0  0  0  0  0  0  0  0  0  0  0  0
   10.4995    1.7569    0.0000 C   0  0  0  0  0  0  0  0  0  0  0  0
   13.2708    1.7569    0.0000 C   0  0  0  0  0  0  0  0  0  0  0  0
   14.6564    2.5569    0.0000 C   0  0  0  0  0  0  0  0  0  0  0  0
   14.6564    4.1569    0.0000 C   0  0  0  0  0  0  0  0  0  0  0  0
   13.2708    4.9569    0.0000 C   0  0  0  0  0  0  0  0  0  0  0  0
   13.2708    6.5569    0.0000 C   0  0  0  0  0  0  0  0  0  0  0  0
    4.9569    6.5569    0.0000 C   0  0  0  0  0  0  0  0  0  0  0  0
    3.5713    7.3569    0.0000 C   0  0  0  0  0  0  0  0  0  0  0  0
    3.5713    8.9569    0.0000 C   0  0  0  0  0  0  0  0  0  0  0  0
    2.1856    9.7569    0.0000 C   0  0  0  0  0  0  0  0  0  0  0  0
    0.8000    8.9569    0.0000 C   0  0  0  0  0  0  0  0  0  0  0  0
    0.8000    7.3569    0.0000 C   0  0  0  0  0  0  0  0  0  0  0  0
    2.1856    6.5569    0.0000 C   0  0  0  0  0  0  0  0  0  0  0  0
    0.8000   -1.3856    0.0000 C   0  0  0  0  0  0  0  0  0  0  0  0
    2.4000   -1.3856    0.0000 C   0  0  0  0  0  0  0  0  0  0  0  0
    0.0000   -2.7713    0.0000 C   0  0  0  0  0  0  0  0  0  0  0  0
  1  2  2  0  0  0  0
  2  3  1  0  0  0  0
  2  7  1  0  0  0  0
  3  4  1  0  0  0  0
  4  5  1  0  0  0  0
  5  6  1  0  0  0  0
  6  7  1  0  0  0  0
  7  8  1  0  0  0  0
  8  9  1  6  0  0  0
  8 44  1  0  0  0  0
  9 10  2  0  0  0  0
  9 11  1  0  0  0  0
 11 12  1  0  0  0  0
 12 13  1  6  0  0  0
 12 20  1  0  0  0  0
 13 14  1  0  0  0  0
 14 15  1  0  0  0  0
 14 19  2  0  0  0  0
 15 16  2  0  0  0  0
 16 17  1  0  0  0  0
 17 18  2  0  0  0  0
 18 19  1  0  0  0  0
 20 21  1  0  0  0  0
 21 22  1  1  0  0  0
 21 23  1  0  0  0  0
 23 24  1  1  0  0  0
 23 37  1  0  0  0  0
 24 25  1  0  0  0  0
 25 26  2  0  0  0  0
 25 27  1  0  0  0  0
 27 28  1  0  0  0  0
 28 29  1  0  0  0  0
 29 30  1  0  0  0  0
 29 35  2  0  0  0  0
 30 31  1  0  0  0  0
 30 32  2  0  0  0  0
 32 33  1  0  0  0  0
 33 34  2  0  0  0  0
 34 35  1  0  0  0  0
 35 36  1  0  0  0  0
 37 38  1  0  0  0  0
 38 39  1  0  0  0  0
 38 43  2  0  0  0  0
 39 40  2  0  0  0  0
 40 41  1  0  0  0  0
 41 42  2  0  0  0  0
 42 43  1  0  0  0  0
 44 45  1  0  0  0  0
 44 46  1  0  0  0  0
M  END
> <Acceptable>
false

> <IC50>
8.6

$$$$

Generated by Molecular Materials Informatics

 27 30  0  0  0  0  0  0  0  0999 V2000
   -3.3976    5.4079    0.0000 Cl  0  0  0  0  0  0  0  0  0  0  0  0
   -2.5976    4.0222    0.0000 C   0  0  0  0  0  0  0  0  0  0  0  0
   -0.9976    4.0222    0.0000 C   0  0  0  0  0  0  0  0  0  0  0  0
   -0.1976    2.6366    0.0000 C   0  0  0  0  0  0  0  0  0  0  0  0
   -0.9976    1.2509    0.0000 C   0  0  0  0  0  0  0  0  0  0  0  0
   -2.5976    1.2509    0.0000 C   0  0  0  0  0  0  0  0  0  0  0  0
   -3.3976    2.6366    0.0000 C   0  0  0  0  0  0  0  0  0  0  0  0
   -3.5952    0.0000    0.0000 C   0  0  0  0  0  0  0  0  0  0  0  0
   -3.2391   -1.5599    0.0000 C   0  0  0  0  0  0  0  0  0  0  0  0
   -1.7976   -2.2541    0.0000 C   0  0  0  0  0  0  0  0  0  0  0  0
   -1.9172   -3.8496    0.0000 C   0  0  0  0  0  0  0  0  0  0  0  0
   -0.5952   -4.7509    0.0000 C   0  0  0  0  0  0  0  0  0  0  0  0
    0.8464   -4.0567    0.0000 C   0  0  0  0  0  0  0  0  0  0  0  0
    0.9659   -2.4612    0.0000 N   0  0  0  0  0  0  0  0  0  0  0  0
   -0.3560   -1.5599    0.0000 C   0  0  0  0  0  0  0  0  0  0  0  0
    0.0000    0.0000    0.0000 C   0  0  0  0  0  0  0  0  0  0  0  0
    1.5599    0.3560    0.0000 C   0  0  0  0  0  0  0  0  0  0  0  0
    2.6482   -0.8168    0.0000 C   0  0  0  0  0  0  0  0  0  0  0  0
    4.2080   -0.4608    0.0000 C   0  0  0  0  0  0  0  0  0  0  0  0
    4.6797    1.0681    0.0000 N   0  0  0  0  0  0  0  0  0  0  0  0
    3.5914    2.2410    0.0000 C   0  0  0  0  0  0  0  0  0  0  0  0
    2.0315    1.8850    0.0000 C   0  0  0  0  0  0  0  0  0  0  0  0
    6.2395    1.4241    0.0000 C   0  0  0  0  0  0  0  0  0  0  0  0
    6.7111    2.9531    0.0000 O   0  0  0  0  0  0  0  0  0  0  0  0
    7.3278    0.2513    0.0000 O   0  0  0  0  0  0  0  0  0  0  0  0
    8.8877    0.6073    0.0000 C   0  0  0  0  0  0  0  0  0  0  0  0
    9.9760   -0.5656    0.0000 C   0  0  0  0  0  0  0  0  0  0  0  0
  1  2  1  0  0  0  0
  2  3  1  0  0  0  0
  2  7  2  0  0  0  0
  3  4  2  0  0  0  0
  4  5  1  0  0  0  0
  5  6  2  0  0  0  0
  5 16  1  0  0  0  0
  6  7  1  0  0  0  0
  6  8  1  0  0  0  0
  8  9  1  0  0  0  0
  9 10  1  0  0  0  0
 10 11  1  0  0  0  0
 10 15  2  0  0  0  0
 11 12  2  0  0  0  0
 12 13  1  0  0  0  0
 13 14  2  0  0  0  0
 14 15  1  0  0  0  0
 15 16  1  0  0  0  0
 16 17  2  0  0  0  0
 17 18  1  0  0  0  0
 17 22  1  0  0  0  0
 18 19  1  0  0  0  0
 19 20  1  0  0  0  0
 20 21  1  0  0  0  0
 20 23  1  0  0  0  0
 21 22  1  0  0  0  0
 23 24  2  0  0  0  0
 23 25  1  0  0  0  0
 25 26  1  0  0  0  0
 26 27  1  0  0  0  0
M  END
> <Acceptable>
false

> <IC50>
2.3

$$$$

Generated by Molecular Materials Informatics

 21 23  0  0  0  0  0  0  0  0999 V2000
   -2.5328   -4.7821    0.0000 Cl  0  0  0  0  0  0  0  0  0  0  0  0
   -1.1472   -3.9821    0.0000 C   0  0  0  0  0  0  0  0  0  0  0  0
    0.2385   -4.7821    0.0000 C   0  0  0  0  0  0  0  0  0  0  0  0
    1.6241   -3.9821    0.0000 C   0  0  0  0  0  0  0  0  0  0  0  0
    1.6241   -2.3821    0.0000 C   0  0  0  0  0  0  0  0  0  0  0  0
    3.1135   -1.7976    0.0000 N   0  0  0  0  0  0  0  0  0  0  0  0
    3.5851   -0.2687    0.0000 C   0  0  0  0  0  0  0  0  0  0  0  0
    5.1672   -0.0302    0.0000 O   0  0  0  0  0  0  0  0  0  0  0  0
    2.6838    1.0533    0.0000 C   0  0  0  0  0  0  0  0  0  0  0  0
    3.4838    2.4390    0.0000 O   0  0  0  0  0  0  0  0  0  0  0  0
    1.0883    1.1729    0.0000 N   0  0  0  0  0  0  0  0  0  0  0  0
    0.0000    0.0000    0.0000 C   0  0  0  0  0  0  0  0  0  0  0  0
    0.2385   -1.5821    0.0000 C   0  0  0  0  0  0  0  0  0  0  0  0
   -1.1472   -2.3821    0.0000 C   0  0  0  0  0  0  0  0  0  0  0  0
   -1.5289    0.4716    0.0000 C   0  0  0  0  0  0  0  0  0  0  0  0
   -1.8849    2.0315    0.0000 C   0  0  0  0  0  0  0  0  0  0  0  0
   -3.4139    2.5031    0.0000 C   0  0  0  0  0  0  0  0  0  0  0  0
   -4.5867    1.4148    0.0000 C   0  0  0  0  0  0  0  0  0  0  0  0
   -4.2307   -0.1451    0.0000 C   0  0  0  0  0  0  0  0  0  0  0  0
   -2.7018   -0.6167    0.0000 C   0  0  0  0  0  0  0  0  0  0  0  0
   -2.3458   -2.1766    0.0000 Cl  0  0  0  0  0  0  0  0  0  0  0  0
  1  2  1  0  0  0  0
  2  3  1  0  0  0  0
  2 14  2  0  0  0  0
  3  4  2  0  0  0  0
  4  5  1  0  0  0  0
  5  6  1  0  0  0  0
  5 13  2  0  0  0  0
  6  7  1  0  0  0  0
  7  8  2  0  0  0  0
  7  9  1  0  0  0  0
  9 10  1  1  0  0  0
  9 11  1  0  0  0  0
 11 12  2  0  0  0  0
 12 13  1  0  0  0  0
 12 15  1  0  0  0  0
 13 14  1  0  0  0  0
 15 16  1  0  0  0  0
 15 20  2  0  0  0  0
 16 17  2  0  0  0  0
 17 18  1  0  0  0  0
 18 19  2  0  0  0  0
 19 20  1  0  0  0  0
 20 21  1  0  0  0  0
M  END
> <Acceptable>
true

> <IC50>
N/A

$$$$

Generated by Molecular Materials Informatics

 30 33  0  0  0  0  0  0  0  0999 V2000
   -4.1235   -0.3710    0.0000 Cl  0  0  0  0  0  0  0  0  0  0  0  0
   -2.5323   -0.5383    0.0000 C   0  0  0  0  0  0  0  0  0  0  0  0
   -1.7323   -1.9239    0.0000 N   0  0  0  0  0  0  0  0  0  0  0  0
   -0.1672   -1.5912    0.0000 C   0  0  0  0  0  0  0  0  0  0  0  0
    0.0000    0.0000    0.0000 N   0  0  0  0  0  0  0  0  0  0  0  0
    1.3856    0.8000    0.0000 C   0  0  0  0  0  0  0  0  0  0  0  0
    2.7713    0.0000    0.0000 C   0  0  0  0  0  0  0  0  0  0  0  0
    2.7713   -1.6000    0.0000 C   0  0  0  0  0  0  0  0  0  0  0  0
    4.1569   -2.4000    0.0000 C   0  0  0  0  0  0  0  0  0  0  0  0
    5.5426   -1.6000    0.0000 C   0  0  0  0  0  0  0  0  0  0  0  0
    5.5426    0.0000    0.0000 C   0  0  0  0  0  0  0  0  0  0  0  0
    4.1569    0.8000    0.0000 C   0  0  0  0  0  0  0  0  0  0  0  0
    6.9282   -2.4000    0.0000 C   0  0  0  0  0  0  0  0  0  0  0  0
    6.9282   -4.0000    0.0000 C   0  0  0  0  0  0  0  0  0  0  0  0
    8.3138   -4.8000    0.0000 C   0  0  0  0  0  0  0  0  0  0  0  0
    9.6995   -4.0000    0.0000 C   0  0  0  0  0  0  0  0  0  0  0  0
    9.6995   -2.4000    0.0000 C   0  0  0  0  0  0  0  0  0  0  0  0
    8.3138   -1.6000    0.0000 C   0  0  0  0  0  0  0  0  0  0  0  0
    8.3138    0.0000    0.0000 C   0  0  0  0  0  0  0  0  0  0  0  0
    9.6083    0.9405    0.0000 N   0  0  0  0  0  0  0  0  0  0  0  0
    9.1138    2.4621    0.0000 N   0  0  0  0  0  0  0  0  0  0  0  0
    7.5138    2.4621    0.0000 N   0  0  0  0  0  0  0  0  0  0  0  0
    7.0194    0.9405    0.0000 N   0  0  0  0  0  0  0  0  0  0  0  0
   -1.4617    0.6508    0.0000 C   0  0  0  0  0  0  0  0  0  0  0  0
   -1.7943    2.2158    0.0000 C   0  0  0  0  0  0  0  0  0  0  0  0
   -3.3160    2.7102    0.0000 O   0  0  0  0  0  0  0  0  0  0  0  0
    1.0218   -2.6618    0.0000 C   0  0  0  0  0  0  0  0  0  0  0  0
    0.6891   -4.2269    0.0000 C   0  0  0  0  0  0  0  0  0  0  0  0
    1.8782   -5.2975    0.0000 C   0  0  0  0  0  0  0  0  0  0  0  0
    1.5455   -6.8625    0.0000 C   0  0  0  0  0  0  0  0  0  0  0  0
  1  2  1  0  0  0  0
  2  3  1  0  0  0  0
  2 24  2  0  0  0  0
  3  4  2  0  0  0  0
  4  5  1  0  0  0  0
  4 27  1  0  0  0  0
  5  6  1  0  0  0  0
  5 24  1  0  0  0  0
  6  7  1  0  0  0  0
  7  8  1  0  0  0  0
  7 12  2  0  0  0  0
  8  9  2  0  0  0  0
  9 10  1  0  0  0  0
 10 11  2  0  0  0  0
 10 13  1  0  0  0  0
 11 12  1  0  0  0  0
 13 14  1  0  0  0  0
 13 18  2  0  0  0  0
 14 15  2  0  0  0  0
 15 16  1  0  0  0  0
 16 17  2  0  0  0  0
 17 18  1  0  0  0  0
 18 19  1  0  0  0  0
 19 20  1  0  0  0  0
 19 23  2  0  0  0  0
 20 21  2  0  0  0  0
 21 22  1  0  0  0  0
 22 23  1  0  0  0  0
 24 25  1  0  0  0  0
 25 26  1  0  0  0  0
 27 28  1  0  0  0  0
 28 29  1  0  0  0  0
 29 30  1  0  0  0  0
M  END
> <Acceptable>
false

> <IC50>
7.76

$$$$

Generated by Molecular Materials Informatics

 29 31  0  0  0  0  0  0  0  0999 V2000
   -8.0000    5.5426    0.0000 O   0  0  0  0  0  0  0  0  0  0  0  0
   -7.2000    4.1569    0.0000 C   0  0  0  0  0  0  0  0  0  0  0  0
   -5.6000    4.1569    0.0000 O   0  0  0  0  0  0  0  0  0  0  0  0
   -4.8000    2.7713    0.0000 C   0  0  0  0  0  0  0  0  0  0  0  0
   -5.6000    1.3856    0.0000 C   0  0  0  0  0  0  0  0  0  0  0  0
   -7.2000    1.3856    0.0000 C   0  0  0  0  0  0  0  0  0  0  0  0
   -8.0000    0.0000    0.0000 O   0  0  0  0  0  0  0  0  0  0  0  0
   -8.0000    2.7713    0.0000 C   0  0  0  0  0  0  0  0  0  0  0  0
   -3.2000    2.7713    0.0000 C   0  0  0  0  0  0  0  0  0  0  0  0
   -2.4000    1.3856    0.0000 C   0  0  0  0  0  0  0  0  0  0  0  0
   -0.8000    1.3856    0.0000 C   0  0  0  0  0  0  0  0  0  0  0  0
    0.0000    2.7713    0.0000 C   0  0  0  0  0  0  0  0  0  0  0  0
   -0.8000    4.1569    0.0000 C   0  0  0  0  0  0  0  0  0  0  0  0
    1.6000    2.7713    0.0000 C   0  0  0  0  0  0  0  0  0  0  0  0
    2.4000    1.3856    0.0000 C   0  0  0  0  0  0  0  0  0  0  0  0
    1.6000    0.0000    0.0000 C   0  0  0  0  0  0  0  0  0  0  0  0
    2.4000   -1.3856    0.0000 C   0  0  0  0  0  0  0  0  0  0  0  0
    1.6000   -2.7713    0.0000 C   0  0  0  0  0  0  0  0  0  0  0  0
    2.4000   -4.1569    0.0000 C   0  0  0  0  0  0  0  0  0  0  0  0
    0.0000   -2.7713    0.0000 C   0  0  0  0  0  0  0  0  0  0  0  0
   -0.8000   -1.3856    0.0000 C   0  0  0  0  0  0  0  0  0  0  0  0
   -2.4000   -1.3856    0.0000 O   0  0  0  0  0  0  0  0  0  0  0  0
   -3.2000   -2.7713    0.0000 C   0  0  0  0  0  0  0  0  0  0  0  0
   -2.4000   -4.1569    0.0000 O   0  0  0  0  0  0  0  0  0  0  0  0
   -4.8000   -2.7713    0.0000 C   0  0  0  0  0  0  0  0  0  0  0  0
   -5.6000   -1.3856    0.0000 C   0  0  0  0  0  0  0  0  0  0  0  0
   -5.6000   -4.1569    0.0000 C   0  0  0  0  0  0  0  0  0  0  0  0
   -7.2000   -4.1569    0.0000 C   0  0  0  0  0  0  0  0  0  0  0  0
    0.0000    0.0000    0.0000 C   0  0  0  0  0  0  0  0  0  0  0  0
  1  2  2  0  0  0  0
  2  3  1  0  0  0  0
  2  8  1  0  0  0  0
  3  4  1  0  0  0  0
  4  5  1  0  0  0  0
  4  9  1  1  0  0  0
  5  6  1  0  0  0  0
  6  7  1  6  0  0  0
  6  8  1  0  0  0  0
  9 10  1  0  0  0  0
 11 10  1  6  0  0  0
 11 12  1  0  0  0  0
 11 29  1  0  0  0  0
 12 13  1  6  0  0  0
 12 14  1  0  0  0  0
 14 15  2  0  0  0  0
 15 16  1  0  0  0  0
 16 17  2  0  0  0  0
 29 16  1  6  0  0  0
 17 18  1  0  0  0  0
 18 19  1  6  0  0  0
 18 20  1  0  0  0  0
 20 21  1  0  0  0  0
 21 22  1  6  0  0  0
 21 29  1  0  0  0  0
 22 23  1  0  0  0  0
 23 24  2  0  0  0  0
 23 25  1  0  0  0  0
 25 26  1  1  0  0  0
 25 27  1  0  0  0  0
 27 28  1  0  0  0  0
M  END
> <Acceptable>
false

> <IC50>
12.5

$$$$

Generated by Molecular Materials Informatics

 23 26  0  0  0  0  0  0  0  0999 V2000
   -2.5328    4.7821    0.0000 Cl  0  0  0  0  0  0  0  0  0  0  0  0
   -1.1472    3.9821    0.0000 C   0  0  0  0  0  0  0  0  0  0  0  0
    0.2385    4.7821    0.0000 C   0  0  0  0  0  0  0  0  0  0  0  0
    1.6241    3.9821    0.0000 C   0  0  0  0  0  0  0  0  0  0  0  0
    1.6241    2.3821    0.0000 C   0  0  0  0  0  0  0  0  0  0  0  0
    3.1135    1.7976    0.0000 O   0  0  0  0  0  0  0  0  0  0  0  0
    3.5851    0.2687    0.0000 C   0  0  0  0  0  0  0  0  0  0  0  0
    5.1806    0.1491    0.0000 C   0  0  0  0  0  0  0  0  0  0  0  0
    5.8749   -1.2925    0.0000 C   0  0  0  0  0  0  0  0  0  0  0  0
    4.9735   -2.6144    0.0000 C   0  0  0  0  0  0  0  0  0  0  0  0
    3.3780   -2.4949    0.0000 C   0  0  0  0  0  0  0  0  0  0  0  0
    2.6838   -1.0533    0.0000 C   0  0  0  0  0  0  0  0  0  0  0  0
    1.0883   -1.1729    0.0000 N   0  0  0  0  0  0  0  0  0  0  0  0
    0.0000    0.0000    0.0000 C   0  0  0  0  0  0  0  0  0  0  0  0
   -1.5289   -0.4716    0.0000 N   0  0  0  0  0  0  0  0  0  0  0  0
   -1.8849   -2.0315    0.0000 C   0  0  0  0  0  0  0  0  0  0  0  0
   -3.4139   -2.5031    0.0000 C   0  0  0  0  0  0  0  0  0  0  0  0
   -4.5867   -1.4148    0.0000 N   0  0  0  0  0  0  0  0  0  0  0  0
   -6.1157   -1.8864    0.0000 C   0  0  0  0  0  0  0  0  0  0  0  0
   -4.2307    0.1451    0.0000 C   0  0  0  0  0  0  0  0  0  0  0  0
   -2.7018    0.6167    0.0000 C   0  0  0  0  0  0  0  0  0  0  0  0
    0.2385    1.5821    0.0000 C   0  0  0  0  0  0  0  0  0  0  0  0
   -1.1472    2.3821    0.0000 C   0  0  0  0  0  0  0  0  0  0  0  0
  1  2  1  0  0  0  0
  2  3  1  0  0  0  0
  2 23  2  0  0  0  0
  3  4  2  0  0  0  0
  4  5  1  0  0  0  0
  5  6  1  0  0  0  0
  5 22  2  0  0  0  0
  6  7  1  0  0  0  0
  7  8  1  0  0  0  0
  7 12  2  0  0  0  0
  8  9  2  0  0  0  0
  9 10  1  0  0  0  0
 10 11  2  0  0  0  0
 11 12  1  0  0  0  0
 12 13  1  0  0  0  0
 13 14  2  0  0  0  0
 14 15  1  0  0  0  0
 14 22  1  0  0  0  0
 15 16  1  0  0  0  0
 15 21  1  0  0  0  0
 16 17  1  0  0  0  0
 17 18  1  0  0  0  0
 18 19  1  0  0  0  0
 18 20  1  0  0  0  0
 20 21  1  0  0  0  0
 22 23  1  0  0  0  0
M  END
> <Acceptable>
true

> <IC50>
N/A

$$$$

Generated by Molecular Materials Informatics

 35 38  0  0  0  0  0  0  0  0999 V2000
   -8.4221    4.6941    0.0000 Cl  0  0  0  0  0  0  0  0  0  0  0  0
   -7.3515    3.5050    0.0000 C   0  0  0  0  0  0  0  0  0  0  0  0
   -5.7865    3.8377    0.0000 C   0  0  0  0  0  0  0  0  0  0  0  0
   -4.7159    2.6487    0.0000 C   0  0  0  0  0  0  0  0  0  0  0  0
   -5.2103    1.1270    0.0000 C   0  0  0  0  0  0  0  0  0  0  0  0
   -6.7754    0.7943    0.0000 C   0  0  0  0  0  0  0  0  0  0  0  0
   -7.8460    1.9834    0.0000 C   0  0  0  0  0  0  0  0  0  0  0  0
   -4.1397   -0.0620    0.0000 C   0  0  0  0  0  0  0  0  0  0  0  0
   -2.5747    0.2706    0.0000 C   0  0  0  0  0  0  0  0  0  0  0  0
   -1.9239    1.7323    0.0000 C   0  0  0  0  0  0  0  0  0  0  0  0
   -2.5747    3.1940    0.0000 C   0  0  0  0  0  0  0  0  0  0  0  0
   -1.6342    4.4884    0.0000 C   0  0  0  0  0  0  0  0  0  0  0  0
   -2.2850    5.9501    0.0000 Cl  0  0  0  0  0  0  0  0  0  0  0  0
   -0.0430    4.3211    0.0000 C   0  0  0  0  0  0  0  0  0  0  0  0
    0.6078    2.8595    0.0000 C   0  0  0  0  0  0  0  0  0  0  0  0
   -0.3327    1.5650    0.0000 C   0  0  0  0  0  0  0  0  0  0  0  0
    0.0000    0.0000    0.0000 C   0  0  0  0  0  0  0  0  0  0  0  0
   -1.3856   -0.8000    0.0000 C   0  0  0  0  0  0  0  0  0  0  0  0
   -1.3856   -2.4000    0.0000 C   0  0  0  0  0  0  0  0  0  0  0  0
    0.0000   -3.2000    0.0000 C   0  0  0  0  0  0  0  0  0  0  0  0
    0.0000   -4.8000    0.0000 Cl  0  0  0  0  0  0  0  0  0  0  0  0
    1.3856   -2.4000    0.0000 C   0  0  0  0  0  0  0  0  0  0  0  0
    1.3856   -0.8000    0.0000 C   0  0  0  0  0  0  0  0  0  0  0  0
    2.7713    0.0000    0.0000 C   0  0  0  0  0  0  0  0  0  0  0  0
    2.7713    1.6000    0.0000 O   0  0  0  0  0  0  0  0  0  0  0  0
    4.1569   -0.8000    0.0000 C   0  0  0  0  0  0  0  0  0  0  0  0
    5.5426    0.0000    0.0000 N   0  0  0  0  0  0  0  0  0  0  0  0
    5.5426    1.6000    0.0000 C   0  0  0  0  0  0  0  0  0  0  0  0
    6.9282    2.4000    0.0000 C   0  0  0  0  0  0  0  0  0  0  0  0
    6.9282    4.0000    0.0000 C   0  0  0  0  0  0  0  0  0  0  0  0
    8.3138    4.8000    0.0000 C   0  0  0  0  0  0  0  0  0  0  0  0
    6.9282   -0.8000    0.0000 C   0  0  0  0  0  0  0  0  0  0  0  0
    8.3138    0.0000    0.0000 C   0  0  0  0  0  0  0  0  0  0  0  0
    9.6995   -0.8000    0.0000 C   0  0  0  0  0  0  0  0  0  0  0  0
   11.0851    0.0000    0.0000 C   0  0  0  0  0  0  0  0  0  0  0  0
  1  2  1  0  0  0  0
  2  3  1  0  0  0  0
  2  7  2  0  0  0  0
  3  4  2  0  0  0  0
  4  5  1  0  0  0  0
  5  6  2  0  0  0  0
  5  8  1  0  0  0  0
  6  7  1  0  0  0  0
  8  9  2  0  0  0  0
  9 10  1  0  0  0  0
  9 18  1  0  0  0  0
 10 11  1  0  0  0  0
 10 16  2  0  0  0  0
 11 12  2  0  0  0  0
 12 13  1  0  0  0  0
 12 14  1  0  0  0  0
 14 15  2  0  0  0  0
 15 16  1  0  0  0  0
 16 17  1  0  0  0  0
 17 18  1  0  0  0  0
 17 23  2  0  0  0  0
 18 19  2  0  0  0  0
 19 20  1  0  0  0  0
 20 21  1  0  0  0  0
 20 22  2  0  0  0  0
 22 23  1  0  0  0  0
 23 24  1  0  0  0  0
 24 25  1  1  0  0  0
 24 26  1  0  0  0  0
 26 27  1  0  0  0  0
 27 28  1  0  0  0  0
 27 32  1  0  0  0  0
 28 29  1  0  0  0  0
 29 30  1  0  0  0  0
 30 31  1  0  0  0  0
 32 33  1  0  0  0  0
 33 34  1  0  0  0  0
 34 35  1  0  0  0  0
M  END
> <Acceptable>
false

> <IC50>
8.1

$$$$

Generated by Molecular Materials Informatics

 23 23  0  0  0  0  0  0  0  0999 V2000
   -1.3856   -2.4000    0.0000 O   0  5  0  0  0  0  0  0  0  0  0  0
   -2.7713    0.0000    0.0000 O   0  0  0  0  0  0  0  0  0  0  0  0
    9.6995    2.4000    0.0000 N   0  0  0  0  0  0  0  0  0  0  0  0
   -1.3856   -0.8000    0.0000 N   0  3  0  0  0  0  0  0  0  0  0  0
   11.0851    1.6000    0.0000 C   0  0  0  0  0  0  0  0  0  0  0  0
   12.4708    2.4000    0.0000 C   0  0  0  0  0  0  0  0  0  0  0  0
    8.3138    1.6000    0.0000 C   0  0  0  0  0  0  0  0  0  0  0  0
   13.8564    1.6000    0.0000 C   0  0  0  0  0  0  0  0  0  0  0  0
    6.9282    2.4000    0.0000 C   0  0  0  0  0  0  0  0  0  0  0  0
   15.2420    2.4000    0.0000 C   0  0  0  0  0  0  0  0  0  0  0  0
    9.6995    4.0000    0.0000 C   0  0  0  0  0  0  0  0  0  0  0  0
    5.5426    1.6000    0.0000 C   0  0  0  0  0  0  0  0  0  0  0  0
   16.6277    1.6000    0.0000 C   0  0  0  0  0  0  0  0  0  0  0  0
    4.1569    2.4000    0.0000 C   0  0  0  0  0  0  0  0  0  0  0  0
   18.0133    2.4000    0.0000 C   0  0  0  0  0  0  0  0  0  0  0  0
   11.0851    4.8000    0.0000 C   0  0  0  0  0  0  0  0  0  0  0  0
    2.7713    1.6000    0.0000 C   0  0  0  0  0  0  0  0  0  0  0  0
   19.3990    1.6000    0.0000 C   0  0  0  0  0  0  0  0  0  0  0  0
    2.7713    0.0000    0.0000 C   0  0  0  0  0  0  0  0  0  0  0  0
    1.3856    2.4000    0.0000 C   0  0  0  0  0  0  0  0  0  0  0  0
    1.3856   -0.8000    0.0000 C   0  0  0  0  0  0  0  0  0  0  0  0
    0.0000    1.6000    0.0000 C   0  0  0  0  0  0  0  0  0  0  0  0
    0.0000    0.0000    0.0000 C   0  0  0  0  0  0  0  0  0  0  0  0
  1  4  1  0  0  0  0
  2  4  2  0  0  0  0
  3  5  1  0  0  0  0
  3  7  1  0  0  0  0
  3 11  1  1  0  0  0
  4 23  1  0  0  0  0
  5  6  1  0  0  0  0
  6  8  1  0  0  0  0
  7  9  1  0  0  0  0
  8 10  1  0  0  0  0
  9 12  1  0  0  0  0
 10 13  1  0  0  0  0
 11 16  1  0  0  0  0
 12 14  1  0  0  0  0
 13 15  1  0  0  0  0
 14 17  1  0  0  0  0
 15 18  1  0  0  0  0
 17 19  2  0  0  0  0
 17 20  1  0  0  0  0
 19 21  1  0  0  0  0
 20 22  2  0  0  0  0
 21 23  2  0  0  0  0
 22 23  1  0  0  0  0
M  CHG  2   1  -1   4   1
M  END
> <Acceptable>
false

> <IC50>
0.0016

$$$$

Generated by Molecular Materials Informatics

 16 16  0  0  0  0  0  0  0  0999 V2000
   -6.9282   -0.8000    0.0000 C   0  0  0  0  0  0  0  0  0  0  0  0
   -6.9282   -2.4000    0.0000 C   0  0  0  0  0  0  0  0  0  0  0  0
   -5.5426   -3.2000    0.0000 C   0  0  0  0  0  0  0  0  0  0  0  0
   -4.1569   -2.4000    0.0000 C   0  0  0  0  0  0  0  0  0  0  0  0
   -4.1569   -0.8000    0.0000 C   0  0  0  0  0  0  0  0  0  0  0  0
   -5.5426    0.0000    0.0000 C   0  0  0  0  0  0  0  0  0  0  0  0
   -8.3138   -3.2000    0.0000 O   0  0  0  0  0  0  0  0  0  0  0  0
   -2.7713    0.0000    0.0000 C   0  0  0  0  0  0  0  0  0  0  0  0
   -1.3856   -0.8000    0.0000 N   0  0  0  0  0  0  0  0  0  0  0  0
    0.0000    0.0000    0.0000 C   0  0  0  0  0  0  0  0  0  0  0  0
    1.3856   -0.8000    0.0000 C   0  0  0  0  0  0  0  0  0  0  0  0
    1.3856   -2.4000    0.0000 O   0  0  0  0  0  0  0  0  0  0  0  0
   -2.7713    1.6000    0.0000 O   0  0  0  0  0  0  0  0  0  0  0  0
   -0.6123    1.4782    0.0000 C   0  0  0  0  0  0  0  0  0  0  0  0
    0.6123    1.4782    0.0000 C   0  0  0  0  0  0  0  0  0  0  0  0
    2.7713    0.0000    0.0000 O   0  0  0  0  0  0  0  0  0  0  0  0
  1  2  1  0  0  0  0
  1  6  2  0  0  0  0
  2  3  2  0  0  0  0
  2  7  1  0  0  0  0
  3  4  1  0  0  0  0
  4  5  2  0  0  0  0
  5  6  1  0  0  0  0
  5  8  1  0  0  0  0
  8  9  1  0  0  0  0
  8 13  2  0  0  0  0
  9 10  1  0  0  0  0
 10 11  1  0  0  0  0
 10 14  1  0  0  0  0
 10 15  1  0  0  0  0
 11 12  1  0  0  0  0
 11 16  2  0  0  0  0
M  END
> <Acceptable>
true

> <IC50>
300

$$$$

Generated by Molecular Materials Informatics

 21 24  0  0  0  0  0  0  0  0999 V2000
   -5.5426    0.0000    0.0000 N   0  0  0  0  0  0  0  0  0  0  0  0
   -6.9282    0.8000    0.0000 C   0  0  0  0  0  0  0  0  0  0  0  0
   -4.1569    0.8000    0.0000 C   0  0  0  0  0  0  0  0  0  0  0  0
   -2.7713    0.0000    0.0000 C   0  0  0  0  0  0  0  0  0  0  0  0
   -1.3856    0.8000    0.0000 C   0  0  0  0  0  0  0  0  0  0  0  0
    0.0000    0.0000    0.0000 C   0  0  0  0  0  0  0  0  0  0  0  0
    1.3856    0.8000    0.0000 C   0  0  0  0  0  0  0  0  0  0  0  0
    2.7713    0.0000    0.0000 C   0  0  0  0  0  0  0  0  0  0  0  0
    2.7713   -1.6000    0.0000 C   0  0  0  0  0  0  0  0  0  0  0  0
    1.3856   -2.4000    0.0000 C   0  0  0  0  0  0  0  0  0  0  0  0
    1.3856   -4.0000    0.0000 C   0  0  0  0  0  0  0  0  0  0  0  0
    0.0000   -4.8000    0.0000 C   0  0  0  0  0  0  0  0  0  0  0  0
   -1.3856   -4.0000    0.0000 C   0  0  0  0  0  0  0  0  0  0  0  0
   -1.3856   -2.4000    0.0000 C   0  0  0  0  0  0  0  0  0  0  0  0
    0.0000   -1.6000    0.0000 C   0  0  0  0  0  0  0  0  0  0  0  0
    2.2369   -0.5255    0.0000 C   0  0  0  0  0  0  0  0  0  0  0  0
    3.6940    0.1355    0.0000 C   0  0  0  0  0  0  0  0  0  0  0  0
    3.7721    1.7335    0.0000 C   0  0  0  0  0  0  0  0  0  0  0  0
    2.3865    2.5335    0.0000 C   0  0  0  0  0  0  0  0  0  0  0  0
    1.0416    1.6668    0.0000 C   0  0  0  0  0  0  0  0  0  0  0  0
    1.1977    0.0745    0.0000 C   0  0  0  0  0  0  0  0  0  0  0  0
  1  2  1  0  0  0  0
  1  3  1  0  0  0  0
  3  4  1  0  0  0  0
  4  5  1  0  0  0  0
  6  5  1  1  0  0  0
  6  7  1  0  0  0  0
  6 15  1  0  0  0  0
  6 21  1  0  0  0  0
  7  8  1  0  0  0  0
  8  9  1  0  0  0  0
  9 10  1  6  0  0  0
  9 16  1  0  0  0  0
 10 11  1  0  0  0  0
 10 15  2  0  0  0  0
 11 12  2  0  0  0  0
 12 13  1  0  0  0  0
 13 14  2  0  0  0  0
 14 15  1  0  0  0  0
 16 17  1  0  0  0  0
 16 21  2  0  0  0  0
 17 18  2  0  0  0  0
 18 19  1  0  0  0  0
 19 20  2  0  0  0  0
 20 21  1  0  0  0  0
M  END
> <Acceptable>
false

> <IC50>
3.1

$$$$

Generated by Molecular Materials Informatics

 37 41  0  0  0  0  0  0  0  0999 V2000
  -13.8666   -4.0831    0.0000 F   0  0  0  0  0  0  0  0  0  0  0  0
  -15.6332   -3.0295    0.0000 F   0  0  0  0  0  0  0  0  0  0  0  0
  -12.4435    3.0156    0.0000 O   0  0  0  0  0  0  0  0  0  0  0  0
   -5.2639    1.5279    0.0000 N   0  0  0  0  0  0  0  0  0  0  0  0
    0.0000    0.0000    0.0000 N   0  0  0  0  0  0  0  0  0  0  0  0
    2.4629   -0.7976    0.0000 N   0  0  0  0  0  0  0  0  0  0  0  0
  -10.0634    1.5961    0.0000 N   0  0  0  0  0  0  0  0  0  0  0  0
    2.4614    0.8024    0.0000 N   0  0  0  0  0  0  0  0  0  0  0  0
   -3.7628    2.0817    0.0000 C   0  0  0  0  0  0  0  0  0  0  0  0
   -3.9815    1.0129    0.0000 C   0  0  0  0  0  0  0  0  0  0  0  0
   -1.6000   -0.0016    0.0000 C   0  0  0  0  0  0  0  0  0  0  0  0
   -2.8206    0.4497    0.0000 C   0  0  0  0  0  0  0  0  0  0  0  0
   -3.1069   -0.5621    0.0000 C   0  0  0  0  0  0  0  0  0  0  0  0
   -3.0706    3.6456    0.0000 C   0  0  0  0  0  0  0  0  0  0  0  0
   -3.1021    2.2383    0.0000 C   0  0  0  0  0  0  0  0  0  0  0  0
   -6.8637    1.5506    0.0000 C   0  0  0  0  0  0  0  0  0  0  0  0
   -7.6440    2.9475    0.0000 C   0  0  0  0  0  0  0  0  0  0  0  0
    0.9417   -1.2935    0.0000 C   0  0  0  0  0  0  0  0  0  0  0  0
   -9.2438    2.9702    0.0000 C   0  0  0  0  0  0  0  0  0  0  0  0
    0.9392    1.2954    0.0000 C   0  0  0  0  0  0  0  0  0  0  0  0
    0.4488   -2.8157    0.0000 C   0  0  0  0  0  0  0  0  0  0  0  0
    0.4433    2.8166    0.0000 C   0  0  0  0  0  0  0  0  0  0  0  0
  -10.0241    4.3671    0.0000 C   0  0  0  0  0  0  0  0  0  0  0  0
  -12.4829    0.2446    0.0000 C   0  0  0  0  0  0  0  0  0  0  0  0
  -11.6632    1.6188    0.0000 C   0  0  0  0  0  0  0  0  0  0  0  0
   -1.1159   -3.1499    0.0000 C   0  0  0  0  0  0  0  0  0  0  0  0
    1.5206   -4.0037    0.0000 C   0  0  0  0  0  0  0  0  0  0  0  0
  -14.0827    0.2674    0.0000 C   0  0  0  0  0  0  0  0  0  0  0  0
  -11.7026   -1.1522    0.0000 C   0  0  0  0  0  0  0  0  0  0  0  0
  -14.9023   -1.1068    0.0000 C   0  0  0  0  0  0  0  0  0  0  0  0
  -12.5222   -2.5264    0.0000 C   0  0  0  0  0  0  0  0  0  0  0  0
  -14.1220   -2.5036    0.0000 C   0  0  0  0  0  0  0  0  0  0  0  0
   -9.2045    5.7412    0.0000 C   0  0  0  0  0  0  0  0  0  0  0  0
  -11.6239    4.3898    0.0000 C   0  0  0  0  0  0  0  0  0  0  0  0
   -9.9847    7.1381    0.0000 C   0  0  0  0  0  0  0  0  0  0  0  0
  -12.4041    5.7866    0.0000 C   0  0  0  0  0  0  0  0  0  0  0  0
  -11.5845    7.1608    0.0000 C   0  0  0  0  0  0  0  0  0  0  0  0
  1 32  1  0  0  0  0
  2 32  1  0  0  0  0
  3 25  2  0  0  0  0
  4  9  1  0  0  0  0
  4 10  1  0  0  0  0
  4 16  1  6  0  0  0
 11  5  1  1  0  0  0
  5 18  1  0  0  0  0
  5 20  1  0  0  0  0
  6  8  1  0  0  0  0
  6 18  2  0  0  0  0
  7 19  1  0  0  0  0
  7 25  1  0  0  0  0
  8 20  2  0  0  0  0
  9 12  1  0  0  0  0
  9 14  1  6  0  0  0
 10 13  1  1  0  0  0
 10 15  1  0  0  0  0
 11 12  1  0  0  0  0
 11 13  1  0  0  0  0
 14 15  1  0  0  0  0
 16 17  1  0  0  0  0
 17 19  1  0  0  0  0
 18 21  1  0  0  0  0
 19 23  1  6  0  0  0
 20 22  1  0  0  0  0
 21 26  1  0  0  0  0
 21 27  1  0  0  0  0
 23 33  2  0  0  0  0
 23 34  1  0  0  0  0
 24 25  1  0  0  0  0
 24 28  1  0  0  0  0
 24 29  1  0  0  0  0
 28 30  1  0  0  0  0
 29 31  1  0  0  0  0
 30 32  1  0  0  0  0
 31 32  1  0  0  0  0
 33 35  1  0  0  0  0
 34 36  2  0  0  0  0
 35 37  2  0  0  0  0
 36 37  1  0  0  0  0
M  END
> <Acceptable>
false

> <IC50>
42.6

$$$$

Generated by Molecular Materials Informatics

 20 22  0  0  0  0  0  0  0  0999 V2000
   -6.4000    0.0000    0.0000 O   0  0  0  0  0  0  0  0  0  0  0  0
   -4.8000    0.0000    0.0000 C   0  0  0  0  0  0  0  0  0  0  0  0
   -4.0000   -1.3856    0.0000 N   0  0  0  0  0  0  0  0  0  0  0  0
   -2.4000   -1.3856    0.0000 N   0  0  0  0  0  0  0  0  0  0  0  0
   -1.6000    0.0000    0.0000 C   0  0  0  0  0  0  0  0  0  0  0  0
   -2.4000    1.3856    0.0000 C   0  0  0  0  0  0  0  0  0  0  0  0
   -4.0000    1.3856    0.0000 C   0  0  0  0  0  0  0  0  0  0  0  0
    0.0000    0.0000    0.0000 C   0  0  0  0  0  0  0  0  0  0  0  0
    0.8000   -1.3856    0.0000 C   0  0  0  0  0  0  0  0  0  0  0  0
    2.4000   -1.3856    0.0000 C   0  0  0  0  0  0  0  0  0  0  0  0
    3.2000    0.0000    0.0000 C   0  0  0  0  0  0  0  0  0  0  0  0
    4.8000    0.0000    0.0000 N   0  0  0  0  0  0  0  0  0  0  0  0
    5.6000   -1.3856    0.0000 C   0  0  0  0  0  0  0  0  0  0  0  0
    4.8000   -2.7713    0.0000 C   0  0  0  0  0  0  0  0  0  0  0  0
    5.6000   -4.1569    0.0000 C   0  0  0  0  0  0  0  0  0  0  0  0
    7.2000   -4.1569    0.0000 N   0  0  0  0  0  0  0  0  0  0  0  0
    8.0000   -2.7713    0.0000 C   0  0  0  0  0  0  0  0  0  0  0  0
    7.2000   -1.3856    0.0000 C   0  0  0  0  0  0  0  0  0  0  0  0
    2.4000    1.3856    0.0000 C   0  0  0  0  0  0  0  0  0  0  0  0
    0.8000    1.3856    0.0000 C   0  0  0  0  0  0  0  0  0  0  0  0
  1  2  2  0  0  0  0
  2  3  1  0  0  0  0
  2  7  1  0  0  0  0
  3  4  1  0  0  0  0
  4  5  2  0  0  0  0
  5  6  1  0  0  0  0
  5  8  1  0  0  0  0
  6  7  1  0  0  0  0
  8  9  1  0  0  0  0
  8 20  2  0  0  0  0
  9 10  2  0  0  0  0
 10 11  1  0  0  0  0
 11 12  1  0  0  0  0
 11 19  2  0  0  0  0
 12 13  1  0  0  0  0
 13 14  1  0  0  0  0
 13 18  2  0  0  0  0
 14 15  2  0  0  0  0
 15 16  1  0  0  0  0
 16 17  2  0  0  0  0
 17 18  1  0  0  0  0
 19 20  1  0  0  0  0
M  END
> <Acceptable>
false

> <IC50>
1.04

$$$$

Generated by Molecular Materials Informatics

 27 29  0  0  0  0  0  0  0  0999 V2000
  -14.4000    2.7713    0.0000 F   0  0  0  0  0  0  0  0  0  0  0  0
    0.0000    2.7713    0.0000 O   0  0  0  0  0  0  0  0  0  0  0  0
    2.4000    1.3856    0.0000 O   0  0  0  0  0  0  0  0  0  0  0  0
    4.0000   -1.3856    0.0000 O   0  0  0  0  0  0  0  0  0  0  0  0
   -5.6000    1.3856    0.0000 N   0  0  0  0  0  0  0  0  0  0  0  0
   -2.4000    1.3856    0.0000 C   0  0  0  0  0  0  0  0  0  0  0  0
   -3.2000    2.7713    0.0000 C   0  0  0  0  0  0  0  0  0  0  0  0
   -3.2000    0.0000    0.0000 C   0  0  0  0  0  0  0  0  0  0  0  0
   -4.8000    2.7713    0.0000 C   0  0  0  0  0  0  0  0  0  0  0  0
   -4.8000    0.0000    0.0000 C   0  0  0  0  0  0  0  0  0  0  0  0
   -0.8000    1.3856    0.0000 C   0  0  0  0  0  0  0  0  0  0  0  0
   -7.2000    1.3856    0.0000 C   0  0  0  0  0  0  0  0  0  0  0  0
    0.0000    0.0000    0.0000 C   0  0  0  0  0  0  0  0  0  0  0  0
   -8.0000    2.7713    0.0000 C   0  0  0  0  0  0  0  0  0  0  0  0
    1.6000    0.0000    0.0000 C   0  0  0  0  0  0  0  0  0  0  0  0
   -0.8000   -1.3856    0.0000 C   0  0  0  0  0  0  0  0  0  0  0  0
   -9.6000    2.7713    0.0000 C   0  0  0  0  0  0  0  0  0  0  0  0
    2.4000   -1.3856    0.0000 C   0  0  0  0  0  0  0  0  0  0  0  0
    0.0000   -2.7713    0.0000 C   0  0  0  0  0  0  0  0  0  0  0  0
    1.6000   -2.7713    0.0000 C   0  0  0  0  0  0  0  0  0  0  0  0
  -10.4000    1.3856    0.0000 C   0  0  0  0  0  0  0  0  0  0  0  0
  -10.4000    4.1569    0.0000 C   0  0  0  0  0  0  0  0  0  0  0  0
  -12.0000    1.3856    0.0000 C   0  0  0  0  0  0  0  0  0  0  0  0
  -12.0000    4.1569    0.0000 C   0  0  0  0  0  0  0  0  0  0  0  0
    4.0000    1.3856    0.0000 C   0  0  0  0  0  0  0  0  0  0  0  0
  -12.8000    2.7713    0.0000 C   0  0  0  0  0  0  0  0  0  0  0  0
    4.8000   -2.7713    0.0000 C   0  0  0  0  0  0  0  0  0  0  0  0
  1 26  1  0  0  0  0
 11  2  1  1  0  0  0
  3 15  1  0  0  0  0
  3 25  1  0  0  0  0
  4 18  1  0  0  0  0
  4 27  1  0  0  0  0
  5  9  1  0  0  0  0
  5 10  1  0  0  0  0
  5 12  1  1  0  0  0
  6  7  1  6  0  0  0
  6  8  1  0  0  0  0
  6 11  1  0  0  0  0
  7  9  1  0  0  0  0
  8 10  1  0  0  0  0
 11 13  1  0  0  0  0
 12 14  1  0  0  0  0
 13 15  2  0  0  0  0
 13 16  1  0  0  0  0
 14 17  1  0  0  0  0
 15 18  1  0  0  0  0
 16 19  2  0  0  0  0
 17 21  2  0  0  0  0
 17 22  1  0  0  0  0
 18 20  2  0  0  0  0
 19 20  1  0  0  0  0
 21 23  1  0  0  0  0
 22 24  2  0  0  0  0
 23 26  2  0  0  0  0
 24 26  1  0  0  0  0
M  END
> <Acceptable>
false

> <IC50>
1

$$$$

Generated by Molecular Materials Informatics

 24 28  0  0  0  0  0  0  0  0999 V2000
    4.1569   -0.8000    0.0000 O   0  0  0  0  0  0  0  0  0  0  0  0
    4.1569    0.8000    0.0000 C   0  0  0  0  0  0  0  0  0  0  0  0
    2.7713    1.6000    0.0000 O   0  0  0  0  0  0  0  0  0  0  0  0
    1.3856    0.8000    0.0000 C   0  0  0  0  0  0  0  0  0  0  0  0
    0.0000    1.6000    0.0000 C   0  0  0  0  0  0  0  0  0  0  0  0
   -1.3856    0.8000    0.0000 C   0  0  0  0  0  0  0  0  0  0  0  0
    0.0000    0.0000    0.0000 N   0  0  0  0  0  0  0  0  0  0  0  0
   -1.1977    0.0745    0.0000 C   0  0  0  0  0  0  0  0  0  0  0  0
   -2.2369   -0.5255    0.0000 C   0  0  0  0  0  0  0  0  0  0  0  0
   -3.8344   -0.4356    0.0000 O   0  0  0  0  0  0  0  0  0  0  0  0
   -2.7713   -1.6000    0.0000 C   0  0  0  0  0  0  0  0  0  0  0  0
   -2.7713    0.0000    0.0000 C   0  0  0  0  0  0  0  0  0  0  0  0
   -1.3856   -2.4000    0.0000 C   0  0  0  0  0  0  0  0  0  0  0  0
    0.0000   -1.6000    0.0000 C   0  0  0  0  0  0  0  0  0  0  0  0
    1.3856   -0.8000    0.0000 C   0  0  0  0  0  0  0  0  0  0  0  0
    5.5426    1.6000    0.0000 C   0  0  0  0  0  0  0  0  0  0  0  0
    5.7098    3.1912    0.0000 C   0  0  0  0  0  0  0  0  0  0  0  0
    7.2748    3.5239    0.0000 N   0  0  0  0  0  0  0  0  0  0  0  0
    8.0748    2.1383    0.0000 C   0  0  0  0  0  0  0  0  0  0  0  0
    9.6399    1.8056    0.0000 C   0  0  0  0  0  0  0  0  0  0  0  0
   10.1343    0.2839    0.0000 C   0  0  0  0  0  0  0  0  0  0  0  0
    9.0637   -0.9051    0.0000 C   0  0  0  0  0  0  0  0  0  0  0  0
    7.4987   -0.5725    0.0000 C   0  0  0  0  0  0  0  0  0  0  0  0
    7.0042    0.9492    0.0000 C   0  0  0  0  0  0  0  0  0  0  0  0
  1  2  2  0  0  0  0
  2  3  1  0  0  0  0
  2 16  1  0  0  0  0
  4  3  1  1  0  0  0
  4  5  1  0  0  0  0
  4 15  1  0  0  0  0
  5  6  1  0  0  0  0
  6  7  1  0  0  0  0
  6 12  1  0  0  0  0
  7  8  1  6  0  0  0
  7 14  1  0  0  0  0
  8  9  1  0  0  0  0
  9 10  1  1  0  0  0
  9 11  1  0  0  0  0
 11 12  1  1  0  0  0
 11 13  1  0  0  0  0
 14 13  1  1  0  0  0
 14 15  1  0  0  0  0
 16 17  2  0  0  0  0
 16 24  1  0  0  0  0
 17 18  1  0  0  0  0
 18 19  1  0  0  0  0
 19 20  1  0  0  0  0
 19 24  2  0  0  0  0
 20 21  2  0  0  0  0
 21 22  1  0  0  0  0
 22 23  2  0  0  0  0
 23 24  1  0  0  0  0
M  END
> <Acceptable>
false

> <IC50>
12.02

$$$$

Generated by Molecular Materials Informatics

 12 13  0  0  0  0  0  0  0  0999 V2000
   -1.5980   -0.0804    0.0000 N   0  0  0  0  0  0  0  0  0  0  0  0
   -2.4666    1.2633    0.0000 C   0  0  0  0  0  0  0  0  0  0  0  0
    0.0000    0.0000    0.0000 C   0  0  0  0  0  0  0  0  0  0  0  0
   -0.0650    1.5987    0.0000 C   0  0  0  0  0  0  0  0  0  0  0  0
    1.4507    0.0449    0.0000 C   0  0  0  0  0  0  0  0  0  0  0  0
    2.4747    1.2743    0.0000 C   0  0  0  0  0  0  0  0  0  0  0  0
    2.6170   -0.2283    0.0000 C   0  0  0  0  0  0  0  0  0  0  0  0
    1.7076   -1.6745    0.0000 C   0  0  0  0  0  0  0  0  0  0  0  0
    2.7691   -2.7646    0.0000 C   0  0  0  0  0  0  0  0  0  0  0  0
    0.0985   -1.6412    0.0000 C   0  0  0  0  0  0  0  0  0  0  0  0
    0.1084   -3.2412    0.0000 C   0  0  0  0  0  0  0  0  0  0  0  0
   -1.5006   -1.6941    0.0000 C   0  0  0  0  0  0  0  0  0  0  0  0
  1  2  1  0  0  0  0
  1  3  1  0  0  0  0
  3  4  1  6  0  0  0
  3  5  1  0  0  0  0
  3 10  1  0  0  0  0
  5  6  1  6  0  0  0
  5  9  1  0  0  0  0
  6  7  1  0  0  0  0
  7  8  1  0  0  0  0
  8  9  1  0  0  0  0
  8 10  1  0  0  0  0
 10 11  1  0  0  0  0
 10 12  1  0  0  0  0
M  END
> <Acceptable>
true

> <IC50>
N/A

$$$$

Generated by Molecular Materials Informatics

 18 19  0  0  0  0  0  0  0  0999 V2000
    0.0000    3.2000    0.0000 O   0  0  0  0  0  0  0  0  0  0  0  0
   -1.3856    2.4000    0.0000 C   0  0  0  0  0  0  0  0  0  0  0  0
   -2.7713    3.2000    0.0000 O   0  0  0  0  0  0  0  0  0  0  0  0
   -1.3856    0.8000    0.0000 C   0  0  0  0  0  0  0  0  0  0  0  0
   -2.7713    0.0000    0.0000 C   0  0  0  0  0  0  0  0  0  0  0  0
   -2.7713   -1.6000    0.0000 C   0  0  0  0  0  0  0  0  0  0  0  0
   -1.3856   -2.4000    0.0000 C   0  0  0  0  0  0  0  0  0  0  0  0
    0.0000   -1.6000    0.0000 C   0  0  0  0  0  0  0  0  0  0  0  0
    0.0000    0.0000    0.0000 C   0  0  0  0  0  0  0  0  0  0  0  0
    1.3856    0.8000    0.0000 N   0  0  0  0  0  0  0  0  0  0  0  0
    2.7713    0.0000    0.0000 C   0  0  0  0  0  0  0  0  0  0  0  0
    2.7713   -1.6000    0.0000 C   0  0  0  0  0  0  0  0  0  0  0  0
    4.1569   -2.4000    0.0000 C   0  0  0  0  0  0  0  0  0  0  0  0
    5.5426   -1.6000    0.0000 C   0  0  0  0  0  0  0  0  0  0  0  0
    5.5426    0.0000    0.0000 C   0  0  0  0  0  0  0  0  0  0  0  0
    6.9282    0.8000    0.0000 C   0  0  0  0  0  0  0  0  0  0  0  0
    4.1569    0.8000    0.0000 C   0  0  0  0  0  0  0  0  0  0  0  0
    4.1569    2.4000    0.0000 C   0  0  0  0  0  0  0  0  0  0  0  0
  1  2  2  0  0  0  0
  2  3  1  0  0  0  0
  2  4  1  0  0  0  0
  4  5  1  0  0  0  0
  4  9  2  0  0  0  0
  5  6  2  0  0  0  0
  6  7  1  0  0  0  0
  7  8  2  0  0  0  0
  8  9  1  0  0  0  0
  9 10  1  0  0  0  0
 10 11  1  0  0  0  0
 11 12  1  0  0  0  0
 11 17  2  0  0  0  0
 12 13  2  0  0  0  0
 13 14  1  0  0  0  0
 14 15  2  0  0  0  0
 15 16  1  0  0  0  0
 15 17  1  0  0  0  0
 17 18  1  0  0  0  0
M  END
> <Acceptable>
true

> <IC50>
N/A

$$$$

Generated by Molecular Materials Informatics

 26 28  0  0  0  0  0  0  0  0999 V2000
    2.4000    4.1569    0.0000 F   0  0  0  0  0  0  0  0  0  0  0  0
    3.2000    2.7713    0.0000 C   0  0  0  0  0  0  0  0  0  0  0  0
    4.8000    2.7713    0.0000 F   0  0  0  0  0  0  0  0  0  0  0  0
    4.0000    4.1569    0.0000 F   0  0  0  0  0  0  0  0  0  0  0  0
    2.4000    1.3856    0.0000 C   0  0  0  0  0  0  0  0  0  0  0  0
    0.8000    1.3856    0.0000 N   0  0  0  0  0  0  0  0  0  0  0  0
    0.0000    0.0000    0.0000 C   0  0  0  0  0  0  0  0  0  0  0  0
    0.8000   -1.3856    0.0000 C   0  0  0  0  0  0  0  0  0  0  0  0
    0.0000   -2.7713    0.0000 C   0  0  0  0  0  0  0  0  0  0  0  0
   -1.6000   -2.7713    0.0000 C   0  0  0  0  0  0  0  0  0  0  0  0
   -2.4000   -1.3856    0.0000 C   0  0  0  0  0  0  0  0  0  0  0  0
   -1.6000    0.0000    0.0000 C   0  0  0  0  0  0  0  0  0  0  0  0
   -2.4000    1.3856    0.0000 C   0  0  0  0  0  0  0  0  0  0  0  0
   -1.6000    2.7713    0.0000 F   0  0  0  0  0  0  0  0  0  0  0  0
   -4.0000    1.3856    0.0000 F   0  0  0  0  0  0  0  0  0  0  0  0
   -3.2000    2.7713    0.0000 F   0  0  0  0  0  0  0  0  0  0  0  0
    2.4000   -1.3856    0.0000 C   0  0  0  0  0  0  0  0  0  0  0  0
    3.2000    0.0000    0.0000 C   0  0  0  0  0  0  0  0  0  0  0  0
    3.2000   -2.7713    0.0000 C   0  0  0  0  0  0  0  0  0  0  0  0
    2.4000   -4.1569    0.0000 O   0  0  0  0  0  0  0  0  0  0  0  0
    4.8000   -2.7713    0.0000 C   0  0  0  0  0  0  0  0  0  0  0  0
    5.6000   -4.1569    0.0000 N   0  0  0  0  0  0  0  0  0  0  0  0
    7.2000   -4.1569    0.0000 C   0  0  0  0  0  0  0  0  0  0  0  0
    8.0000   -2.7713    0.0000 C   0  0  0  0  0  0  0  0  0  0  0  0
    7.2000   -1.3856    0.0000 C   0  0  0  0  0  0  0  0  0  0  0  0
    5.6000   -1.3856    0.0000 C   0  0  0  0  0  0  0  0  0  0  0  0
  1  2  1  0  0  0  0
  2  3  1  0  0  0  0
  2  4  1  0  0  0  0
  2  5  1  0  0  0  0
  5  6  2  0  0  0  0
  5 18  1  0  0  0  0
  6  7  1  0  0  0  0
  7  8  1  0  0  0  0
  7 12  2  0  0  0  0
  8  9  2  0  0  0  0
  8 17  1  0  0  0  0
  9 10  1  0  0  0  0
 10 11  2  0  0  0  0
 11 12  1  0  0  0  0
 12 13  1  0  0  0  0
 13 14  1  0  0  0  0
 13 15  1  0  0  0  0
 13 16  1  0  0  0  0
 17 18  2  0  0  0  0
 17 19  1  0  0  0  0
 19 20  1  1  0  0  0
 19 21  1  0  0  0  0
 21 22  1  1  0  0  0
 21 26  1  0  0  0  0
 22 23  1  0  0  0  0
 23 24  1  0  0  0  0
 24 25  1  0  0  0  0
 25 26  1  0  0  0  0
M  END
> <Acceptable>
false

> <IC50>
2.56

$$$$

Generated by Molecular Materials Informatics

 28 31  0  0  0  0  0  0  0  0999 V2000
   -9.6000    0.0000    0.0000 O   0  0  0  0  0  0  0  0  0  0  0  0
   -8.0000    0.0000    0.0000 C   0  0  0  0  0  0  0  0  0  0  0  0
   -7.2000    1.3856    0.0000 C   0  0  0  0  0  0  0  0  0  0  0  0
   -5.6000    1.3856    0.0000 C   0  0  0  0  0  0  0  0  0  0  0  0
   -4.8000    2.7713    0.0000 C   0  0  0  0  0  0  0  0  0  0  0  0
   -5.6000    4.1569    0.0000 C   0  0  0  0  0  0  0  0  0  0  0  0
   -3.2000    2.7713    0.0000 C   0  0  0  0  0  0  0  0  0  0  0  0
   -2.4000    1.3856    0.0000 C   0  0  0  0  0  0  0  0  0  0  0  0
   -0.8000    1.3856    0.0000 C   0  0  0  0  0  0  0  0  0  0  0  0
    0.2706    2.5747    0.0000 C   0  0  0  0  0  0  0  0  0  0  0  0
    1.7323    1.9239    0.0000 C   0  0  0  0  0  0  0  0  0  0  0  0
    1.5650    0.3327    0.0000 C   0  0  0  0  0  0  0  0  0  0  0  0
    1.7323   -1.2586    0.0000 O   0  0  0  0  0  0  0  0  0  0  0  0
    2.6727   -2.5530    0.0000 C   0  0  0  0  0  0  0  0  0  0  0  0
    2.0220   -4.0147    0.0000 O   0  0  0  0  0  0  0  0  0  0  0  0
    4.2640   -2.3858    0.0000 C   0  0  0  0  0  0  0  0  0  0  0  0
    3.1650    0.3327    0.0000 C   0  0  0  0  0  0  0  0  0  0  0  0
    3.9650   -1.0530    0.0000 O   0  0  0  0  0  0  0  0  0  0  0  0
    3.9650    1.7183    0.0000 C   0  0  0  0  0  0  0  0  0  0  0  0
    0.0000    0.0000    0.0000 C   0  0  0  0  0  0  0  0  0  0  0  0
    0.7014   -1.4381    0.0000 C   0  0  0  0  0  0  0  0  0  0  0  0
   -0.8000   -1.3856    0.0000 C   0  0  0  0  0  0  0  0  0  0  0  0
   -2.4000   -1.3856    0.0000 C   0  0  0  0  0  0  0  0  0  0  0  0
   -3.2000    0.0000    0.0000 C   0  0  0  0  0  0  0  0  0  0  0  0
   -4.8000    0.0000    0.0000 C   0  0  0  0  0  0  0  0  0  0  0  0
   -4.0000   -1.3856    0.0000 C   0  0  0  0  0  0  0  0  0  0  0  0
   -5.6000   -1.3856    0.0000 C   0  0  0  0  0  0  0  0  0  0  0  0
   -7.2000   -1.3856    0.0000 C   0  0  0  0  0  0  0  0  0  0  0  0
  1  2  2  0  0  0  0
  2  3  1  0  0  0  0
  2 28  1  0  0  0  0
  3  4  2  0  0  0  0
  4  5  1  0  0  0  0
  4 25  1  0  0  0  0
  5  6  1  0  0  0  0
  5  7  2  0  0  0  0
  8  7  1  6  0  0  0
  8  9  1  0  0  0  0
  8 24  1  0  0  0  0
  9 10  1  6  0  0  0
  9 20  1  0  0  0  0
 10 11  1  0  0  0  0
 11 12  1  0  0  0  0
 12 13  1  0  0  0  0
 12 17  1  6  0  0  0
 12 20  1  0  0  0  0
 13 14  1  0  0  0  0
 14 15  2  0  0  0  0
 14 16  1  0  0  0  0
 17 18  2  0  0  0  0
 17 19  1  0  0  0  0
 20 21  1  1  0  0  0
 20 22  1  0  0  0  0
 22 23  1  0  0  0  0
 24 23  1  6  0  0  0
 24 25  1  0  0  0  0
 25 26  1  6  0  0  0
 25 27  1  0  0  0  0
 27 28  1  0  0  0  0
M  END
> <Acceptable>
true

> <IC50>
N/A

$$$$

Generated by Molecular Materials Informatics

 23 25  0  0  0  0  0  0  0  0999 V2000
   -7.3405    1.4769    0.0000 S   0  0  0  0  0  0  0  0  0  0  0  0
   -6.4000    2.7713    0.0000 C   0  0  0  0  0  0  0  0  0  0  0  0
   -7.3405    4.0657    0.0000 N   0  0  0  0  0  0  0  0  0  0  0  0
   -8.8621    3.5713    0.0000 C   0  0  0  0  0  0  0  0  0  0  0  0
   -8.8621    1.9713    0.0000 C   0  0  0  0  0  0  0  0  0  0  0  0
  -10.1566    1.0308    0.0000 C   0  0  0  0  0  0  0  0  0  0  0  0
   -4.8000    2.7713    0.0000 N   0  0  0  0  0  0  0  0  0  0  0  0
   -4.0000    1.3856    0.0000 C   0  0  0  0  0  0  0  0  0  0  0  0
   -4.8000    0.0000    0.0000 O   0  0  0  0  0  0  0  0  0  0  0  0
   -2.4000    1.3856    0.0000 C   0  0  0  0  0  0  0  0  0  0  0  0
   -1.6000    0.0000    0.0000 N   0  0  0  0  0  0  0  0  0  0  0  0
    0.0000    0.0000    0.0000 S   0  0  0  0  0  0  0  0  0  0  0  0
   -0.2778   -1.5757    0.0000 O   0  0  0  0  0  0  0  0  0  0  0  0
    1.5035   -0.5472    0.0000 O   0  0  0  0  0  0  0  0  0  0  0  0
    0.8000    1.3856    0.0000 C   0  0  0  0  0  0  0  0  0  0  0  0
    2.4000    1.3856    0.0000 C   0  0  0  0  0  0  0  0  0  0  0  0
    3.2000    2.7713    0.0000 C   0  0  0  0  0  0  0  0  0  0  0  0
    2.4000    4.1569    0.0000 C   0  0  0  0  0  0  0  0  0  0  0  0
    0.8000    4.1569    0.0000 C   0  0  0  0  0  0  0  0  0  0  0  0
    0.0000    2.7713    0.0000 C   0  0  0  0  0  0  0  0  0  0  0  0
   -1.6000    2.7713    0.0000 C   0  0  0  0  0  0  0  0  0  0  0  0
   -2.4000    4.1569    0.0000 O   0  0  0  0  0  0  0  0  0  0  0  0
   -2.4000   -1.3856    0.0000 C   0  0  0  0  0  0  0  0  0  0  0  0
  1  2  1  0  0  0  0
  1  5  1  0  0  0  0
  2  3  2  0  0  0  0
  2  7  1  0  0  0  0
  3  4  1  0  0  0  0
  4  5  2  0  0  0  0
  5  6  1  0  0  0  0
  7  8  1  0  0  0  0
  8  9  2  0  0  0  0
  8 10  1  0  0  0  0
 10 11  1  0  0  0  0
 10 21  2  0  0  0  0
 11 12  1  0  0  0  0
 11 23  1  6  0  0  0
 12 13  2  0  0  0  0
 12 14  2  0  0  0  0
 12 15  1  0  0  0  0
 15 16  1  0  0  0  0
 15 20  2  0  0  0  0
 16 17  2  0  0  0  0
 17 18  1  0  0  0  0
 18 19  2  0  0  0  0
 19 20  1  0  0  0  0
 20 21  1  0  0  0  0
 21 22  1  0  0  0  0
M  END
> <Acceptable>
true

> <IC50>
N/A

$$$$

Generated by Molecular Materials Informatics

 19 19  0  0  0  0  0  0  0  0999 V2000
   -4.8000    2.7713    0.0000 Cl  0  0  0  0  0  0  0  0  0  0  0  0
   -4.0000    1.3856    0.0000 C   0  0  0  0  0  0  0  0  0  0  0  0
   -2.4000    1.3856    0.0000 C   0  0  0  0  0  0  0  0  0  0  0  0
   -1.6000    0.0000    0.0000 N   0  0  0  0  0  0  0  0  0  0  0  0
   -2.4000   -1.3856    0.0000 C   0  0  0  0  0  0  0  0  0  0  0  0
   -4.0000   -1.3856    0.0000 C   0  0  0  0  0  0  0  0  0  0  0  0
   -4.8000   -2.7713    0.0000 Cl  0  0  0  0  0  0  0  0  0  0  0  0
    0.0000    0.0000    0.0000 C   0  0  0  0  0  0  0  0  0  0  0  0
    0.8000   -1.3856    0.0000 C   0  0  0  0  0  0  0  0  0  0  0  0
    2.4000   -1.3856    0.0000 C   0  0  0  0  0  0  0  0  0  0  0  0
    3.2000    0.0000    0.0000 C   0  0  0  0  0  0  0  0  0  0  0  0
    2.4000    1.3856    0.0000 C   0  0  0  0  0  0  0  0  0  0  0  0
    0.8000    1.3856    0.0000 C   0  0  0  0  0  0  0  0  0  0  0  0
    4.8000    0.0000    0.0000 C   0  0  0  0  0  0  0  0  0  0  0  0
    5.6000   -1.3856    0.0000 C   0  0  0  0  0  0  0  0  0  0  0  0
    4.8000   -2.7713    0.0000 N   0  0  0  0  0  0  0  0  0  0  0  0
    7.2000   -1.3856    0.0000 C   0  0  0  0  0  0  0  0  0  0  0  0
    8.0000    0.0000    0.0000 O   0  0  0  0  0  0  0  0  0  0  0  0
    8.0000   -2.7713    0.0000 O   0  0  0  0  0  0  0  0  0  0  0  0
  1  2  1  0  0  0  0
  2  3  1  0  0  0  0
  3  4  1  0  0  0  0
  4  5  1  0  0  0  0
  4  8  1  0  0  0  0
  5  6  1  0  0  0  0
  6  7  1  0  0  0  0
  8  9  1  0  0  0  0
  8 13  2  0  0  0  0
  9 10  2  0  0  0  0
 10 11  1  0  0  0  0
 11 12  2  0  0  0  0
 11 14  1  0  0  0  0
 12 13  1  0  0  0  0
 14 15  1  0  0  0  0
 15 16  1  1  0  0  0
 15 17  1  0  0  0  0
 17 18  2  0  0  0  0
 17 19  1  0  0  0  0
M  END
> <Acceptable>
true

> <IC50>
N/A

$$$$

Generated by Molecular Materials Informatics

 18 19  0  0  0  0  0  0  0  0999 V2000
   -4.1569    2.4000    0.0000 O   0  0  0  0  0  0  0  0  0  0  0  0
   -2.7713    1.6000    0.0000 C   0  0  0  0  0  0  0  0  0  0  0  0
   -1.3856    2.4000    0.0000 N   0  0  0  0  0  0  0  0  0  0  0  0
    0.0000    1.6000    0.0000 C   0  0  0  0  0  0  0  0  0  0  0  0
    1.3856    2.4000    0.0000 O   0  0  0  0  0  0  0  0  0  0  0  0
    0.0000    0.0000    0.0000 C   0  0  0  0  0  0  0  0  0  0  0  0
    0.5472   -1.5035    0.0000 C   0  0  0  0  0  0  0  0  0  0  0  0
   -0.4812   -2.7292    0.0000 C   0  0  0  0  0  0  0  0  0  0  0  0
   -1.3856   -0.8000    0.0000 C   0  0  0  0  0  0  0  0  0  0  0  0
   -1.3856   -2.4000    0.0000 O   0  0  0  0  0  0  0  0  0  0  0  0
   -2.7713    0.0000    0.0000 N   0  0  0  0  0  0  0  0  0  0  0  0
   -4.1569   -0.8000    0.0000 C   0  0  0  0  0  0  0  0  0  0  0  0
    1.5757    0.2778    0.0000 C   0  0  0  0  0  0  0  0  0  0  0  0
    2.1229    1.7813    0.0000 C   0  0  0  0  0  0  0  0  0  0  0  0
    3.6986    2.0592    0.0000 C   0  0  0  0  0  0  0  0  0  0  0  0
    4.7271    0.8335    0.0000 C   0  0  0  0  0  0  0  0  0  0  0  0
    4.1798   -0.6700    0.0000 C   0  0  0  0  0  0  0  0  0  0  0  0
    2.6042   -0.9478    0.0000 C   0  0  0  0  0  0  0  0  0  0  0  0
  1  2  2  0  0  0  0
  2  3  1  0  0  0  0
  2 11  1  0  0  0  0
  3  4  1  0  0  0  0
  4  5  2  0  0  0  0
  4  6  1  0  0  0  0
  6  7  1  0  0  0  0
  6  9  1  0  0  0  0
  6 13  1  6  0  0  0
  7  8  1  0  0  0  0
  9 10  2  0  0  0  0
  9 11  1  0  0  0  0
 11 12  1  0  0  0  0
 13 14  1  0  0  0  0
 13 18  2  0  0  0  0
 14 15  2  0  0  0  0
 15 16  1  0  0  0  0
 16 17  2  0  0  0  0
 17 18  1  0  0  0  0
M  END
> <Acceptable>
true

> <IC50>
N/A

$$$$

Generated by Molecular Materials Informatics

 18 19  0  0  0  0  0  0  0  0999 V2000
   -4.0000    1.3856    0.0000 C   0  0  0  0  0  0  0  0  0  0  0  0
   -4.8000    0.0000    0.0000 N   0  0  0  0  0  0  0  0  0  0  0  0
   -6.4000    0.0000    0.0000 C   0  0  0  0  0  0  0  0  0  0  0  0
   -7.2000   -1.3856    0.0000 C   0  0  0  0  0  0  0  0  0  0  0  0
   -6.4000   -2.7713    0.0000 C   0  0  0  0  0  0  0  0  0  0  0  0
   -4.8000   -2.7713    0.0000 C   0  0  0  0  0  0  0  0  0  0  0  0
   -4.0000   -1.3856    0.0000 C   0  0  0  0  0  0  0  0  0  0  0  0
   -2.4000   -1.3856    0.0000 C   0  0  0  0  0  0  0  0  0  0  0  0
   -1.6000   -2.7713    0.0000 O   0  0  0  0  0  0  0  0  0  0  0  0
   -1.6000    0.0000    0.0000 N   0  0  0  0  0  0  0  0  0  0  0  0
    0.0000    0.0000    0.0000 C   0  0  0  0  0  0  0  0  0  0  0  0
    0.8000   -1.3856    0.0000 C   0  0  0  0  0  0  0  0  0  0  0  0
    0.0000   -2.7713    0.0000 C   0  0  0  0  0  0  0  0  0  0  0  0
    2.4000   -1.3856    0.0000 C   0  0  0  0  0  0  0  0  0  0  0  0
    3.2000    0.0000    0.0000 C   0  0  0  0  0  0  0  0  0  0  0  0
    2.4000    1.3856    0.0000 C   0  0  0  0  0  0  0  0  0  0  0  0
    0.8000    1.3856    0.0000 C   0  0  0  0  0  0  0  0  0  0  0  0
    0.0000    2.7713    0.0000 C   0  0  0  0  0  0  0  0  0  0  0  0
  2  1  1  1  0  0  0
  2  3  1  0  0  0  0
  2  7  1  0  0  0  0
  3  4  1  0  0  0  0
  4  5  1  0  0  0  0
  5  6  1  0  0  0  0
  6  7  1  0  0  0  0
  7  8  1  1  0  0  0
  8  9  2  0  0  0  0
  8 10  1  0  0  0  0
 10 11  1  0  0  0  0
 11 12  1  0  0  0  0
 11 17  2  0  0  0  0
 12 13  1  0  0  0  0
 12 14  2  0  0  0  0
 14 15  1  0  0  0  0
 15 16  2  0  0  0  0
 16 17  1  0  0  0  0
 17 18  1  0  0  0  0
M  END
> <Acceptable>
true

> <IC50>
156.2

$$$$

Generated by Molecular Materials Informatics

 15 14  0  0  0  0  0  0  0  0999 V2000
    4.8000    0.0000    0.0000 O   0  0  0  0  0  0  0  0  0  0  0  0
    4.0000   -1.3856    0.0000 C   0  0  0  0  0  0  0  0  0  0  0  0
    2.4000   -1.3856    0.0000 O   0  0  0  0  0  0  0  0  0  0  0  0
    1.6000    0.0000    0.0000 C   0  0  0  0  0  0  0  0  0  0  0  0
    0.0000    0.0000    0.0000 C   0  0  0  0  0  0  0  0  0  0  0  0
   -0.8000   -1.3856    0.0000 C   0  0  0  0  0  0  0  0  0  0  0  0
   -1.6000    0.0000    0.0000 C   0  0  0  0  0  0  0  0  0  0  0  0
   -2.4000   -1.3856    0.0000 O   0  0  0  0  0  0  0  0  0  0  0  0
   -4.0000   -1.3856    0.0000 C   0  0  0  0  0  0  0  0  0  0  0  0
   -4.8000    0.0000    0.0000 O   0  0  0  0  0  0  0  0  0  0  0  0
   -4.8000   -2.7713    0.0000 N   0  0  0  0  0  0  0  0  0  0  0  0
   -0.8000    1.3856    0.0000 C   0  0  0  0  0  0  0  0  0  0  0  0
    0.0000    2.7713    0.0000 C   0  0  0  0  0  0  0  0  0  0  0  0
   -0.8000    4.1569    0.0000 C   0  0  0  0  0  0  0  0  0  0  0  0
    4.8000   -2.7713    0.0000 N   0  0  0  0  0  0  0  0  0  0  0  0
  1  2  2  0  0  0  0
  2  3  1  0  0  0  0
  2 15  1  0  0  0  0
  3  4  1  0  0  0  0
  4  5  1  0  0  0  0
  5  6  1  0  0  0  0
  5  7  1  0  0  0  0
  5 12  1  0  0  0  0
  7  8  1  0  0  0  0
  8  9  1  0  0  0  0
  9 10  2  0  0  0  0
  9 11  1  0  0  0  0
 12 13  1  0  0  0  0
 13 14  1  0  0  0  0
M  END
> <Acceptable>
true

> <IC50>
N/A

$$$$

Generated by Molecular Materials Informatics

 10 11  0  0  0  0  0  0  0  0999 V2000
   -2.4000    1.3856    0.0000 S   0  0  0  0  0  0  0  0  0  0  0  0
   -1.6000    0.0000    0.0000 C   0  0  0  0  0  0  0  0  0  0  0  0
   -2.4000   -1.3856    0.0000 N   0  0  0  0  0  0  0  0  0  0  0  0
   -1.6000   -2.7713    0.0000 C   0  0  0  0  0  0  0  0  0  0  0  0
    0.0000   -2.7713    0.0000 N   0  0  0  0  0  0  0  0  0  0  0  0
    0.8000   -1.3856    0.0000 C   0  0  0  0  0  0  0  0  0  0  0  0
    2.3650   -1.0530    0.0000 N   0  0  0  0  0  0  0  0  0  0  0  0
    2.5323    0.5383    0.0000 C   0  0  0  0  0  0  0  0  0  0  0  0
    1.0706    1.1890    0.0000 N   0  0  0  0  0  0  0  0  0  0  0  0
    0.0000    0.0000    0.0000 C   0  0  0  0  0  0  0  0  0  0  0  0
  1  2  2  0  0  0  0
  2  3  1  0  0  0  0
  2 10  1  0  0  0  0
  3  4  1  0  0  0  0
  4  5  2  0  0  0  0
  5  6  1  0  0  0  0
  6  7  1  0  0  0  0
  6 10  2  0  0  0  0
  7  8  2  0  0  0  0
  8  9  1  0  0  0  0
  9 10  1  0  0  0  0
M  END
> <Acceptable>
true

> <IC50>
N/A

$$$$

Generated by Molecular Materials Informatics

 11 11  0  0  0  0  0  0  0  0999 V2000
   -2.7713    0.0000    0.0000 O   0  0  0  0  0  0  0  0  0  0  0  0
   -1.3856    0.8000    0.0000 C   0  0  0  0  0  0  0  0  0  0  0  0
   -1.3856    2.4000    0.0000 O   0  0  0  0  0  0  0  0  0  0  0  0
    0.0000    0.0000    0.0000 C   0  0  0  0  0  0  0  0  0  0  0  0
    1.3856    0.8000    0.0000 C   0  0  0  0  0  0  0  0  0  0  0  0
    2.7713    0.0000    0.0000 C   0  0  0  0  0  0  0  0  0  0  0  0
    4.1569    0.8000    0.0000 N   0  0  0  0  0  0  0  0  0  0  0  0
    2.7713   -1.6000    0.0000 C   0  0  0  0  0  0  0  0  0  0  0  0
    1.3856   -2.4000    0.0000 C   0  0  0  0  0  0  0  0  0  0  0  0
    0.0000   -1.6000    0.0000 C   0  0  0  0  0  0  0  0  0  0  0  0
   -1.3856   -2.4000    0.0000 O   0  0  0  0  0  0  0  0  0  0  0  0
  1  2  2  0  0  0  0
  2  3  1  0  0  0  0
  2  4  1  0  0  0  0
  4  5  1  0  0  0  0
  4 10  2  0  0  0  0
  5  6  2  0  0  0  0
  6  7  1  0  0  0  0
  6  8  1  0  0  0  0
  8  9  2  0  0  0  0
  9 10  1  0  0  0  0
 10 11  1  0  0  0  0
M  END
> <Acceptable>
true

> <IC50>
N/A

$$$$

Generated by Molecular Materials Informatics

 26 29  0  0  0  0  0  0  0  0999 V2000
    0.0000    2.7713    0.0000 S   0  0  0  0  0  0  0  0  0  0  0  0
   -1.6000    2.7713    0.0000 C   0  0  0  0  0  0  0  0  0  0  0  0
   -2.4000    4.1569    0.0000 C   0  0  0  0  0  0  0  0  0  0  0  0
   -4.0000    4.1569    0.0000 C   0  0  0  0  0  0  0  0  0  0  0  0
   -4.8000    2.7713    0.0000 C   0  0  0  0  0  0  0  0  0  0  0  0
   -4.0000    1.3856    0.0000 C   0  0  0  0  0  0  0  0  0  0  0  0
   -2.4000    1.3856    0.0000 C   0  0  0  0  0  0  0  0  0  0  0  0
   -1.6000    0.0000    0.0000 N   0  0  0  0  0  0  0  0  0  0  0  0
   -2.4000   -1.3856    0.0000 C   0  0  0  0  0  0  0  0  0  0  0  0
   -4.0000   -1.3856    0.0000 C   0  0  0  0  0  0  0  0  0  0  0  0
   -4.8000   -2.7713    0.0000 C   0  0  0  0  0  0  0  0  0  0  0  0
   -6.4000   -2.7713    0.0000 N   0  0  0  0  0  0  0  0  0  0  0  0
   -7.2000   -1.3856    0.0000 C   0  0  0  0  0  0  0  0  0  0  0  0
   -7.2000   -4.1569    0.0000 C   0  0  0  0  0  0  0  0  0  0  0  0
   -6.4000   -5.5426    0.0000 C   0  0  0  0  0  0  0  0  0  0  0  0
   -4.8000   -5.5426    0.0000 C   0  0  0  0  0  0  0  0  0  0  0  0
   -4.0000   -4.1569    0.0000 C   0  0  0  0  0  0  0  0  0  0  0  0
    0.0000    0.0000    0.0000 C   0  0  0  0  0  0  0  0  0  0  0  0
    0.8000   -1.3856    0.0000 C   0  0  0  0  0  0  0  0  0  0  0  0
    2.4000   -1.3856    0.0000 C   0  0  0  0  0  0  0  0  0  0  0  0
    3.2000   -2.7713    0.0000 S   0  0  0  0  0  0  0  0  0  0  0  0
    2.4000   -4.1569    0.0000 O   0  0  0  0  0  0  0  0  0  0  0  0
    4.8000   -2.7713    0.0000 C   0  0  0  0  0  0  0  0  0  0  0  0
    3.2000    0.0000    0.0000 C   0  0  0  0  0  0  0  0  0  0  0  0
    2.4000    1.3856    0.0000 C   0  0  0  0  0  0  0  0  0  0  0  0
    0.8000    1.3856    0.0000 C   0  0  0  0  0  0  0  0  0  0  0  0
  1  2  1  0  0  0  0
  1 26  1  0  0  0  0
  2  3  1  0  0  0  0
  2  7  2  0  0  0  0
  3  4  2  0  0  0  0
  4  5  1  0  0  0  0
  5  6  2  0  0  0  0
  6  7  1  0  0  0  0
  7  8  1  0  0  0  0
  8  9  1  0  0  0  0
  8 18  1  0  0  0  0
  9 10  1  0  0  0  0
 11 10  1  1  0  0  0
 11 12  1  0  0  0  0
 11 17  1  0  0  0  0
 12 13  1  1  0  0  0
 12 14  1  0  0  0  0
 14 15  1  0  0  0  0
 15 16  1  0  0  0  0
 16 17  1  0  0  0  0
 18 19  1  0  0  0  0
 18 26  2  0  0  0  0
 19 20  2  0  0  0  0
 20 21  1  0  0  0  0
 20 24  1  0  0  0  0
 21 22  1  1  0  0  0
 21 23  1  0  0  0  0
 24 25  2  0  0  0  0
 25 26  1  0  0  0  0
M  END
> <Acceptable>
false

> <IC50>
0.55

$$$$

Generated by Molecular Materials Informatics

 15 15  0  0  0  0  0  0  0  0999 V2000
   -4.1569    0.8000    0.0000 O   0  0  0  0  0  0  0  0  0  0  0  0
   -2.7713    0.0000    0.0000 C   0  0  0  0  0  0  0  0  0  0  0  0
   -2.7713   -1.6000    0.0000 C   0  0  0  0  0  0  0  0  0  0  0  0
   -1.3856   -2.4000    0.0000 C   0  0  0  0  0  0  0  0  0  0  0  0
   -1.3856   -4.0000    0.0000 O   0  0  0  0  0  0  0  0  0  0  0  0
    0.0000   -1.6000    0.0000 C   0  0  0  0  0  0  0  0  0  0  0  0
    0.0000    0.0000    0.0000 C   0  0  0  0  0  0  0  0  0  0  0  0
   -1.3856    0.8000    0.0000 C   0  0  0  0  0  0  0  0  0  0  0  0
    1.3856    0.8000    0.0000 C   0  0  0  0  0  0  0  0  0  0  0  0
    1.3856    2.4000    0.0000 O   0  0  0  0  0  0  0  0  0  0  0  0
    2.7713    0.0000    0.0000 C   0  0  0  0  0  0  0  0  0  0  0  0
    4.1569    0.8000    0.0000 N   0  0  0  0  0  0  0  0  0  0  0  0
    5.5426    0.0000    0.0000 C   0  0  0  0  0  0  0  0  0  0  0  0
    5.5426   -1.6000    0.0000 C   0  0  0  0  0  0  0  0  0  0  0  0
    6.9282    0.8000    0.0000 C   0  0  0  0  0  0  0  0  0  0  0  0
  1  2  1  0  0  0  0
  2  3  1  0  0  0  0
  2  8  2  0  0  0  0
  3  4  2  0  0  0  0
  4  5  1  0  0  0  0
  4  6  1  0  0  0  0
  6  7  2  0  0  0  0
  7  8  1  0  0  0  0
  7  9  1  0  0  0  0
  9 10  1  6  0  0  0
  9 11  1  0  0  0  0
 11 12  1  0  0  0  0
 12 13  1  0  0  0  0
 13 14  1  0  0  0  0
 13 15  1  0  0  0  0
M  END
> <Acceptable>
true

> <IC50>
N/A

$$$$

Generated by Molecular Materials Informatics

 16 17  0  0  0  0  0  0  0  0999 V2000
   -7.7566   -3.1261    0.0000 O   0  0  0  0  0  0  0  0  0  0  0  0
   -6.4621   -2.1856    0.0000 C   0  0  0  0  0  0  0  0  0  0  0  0
   -4.9405   -2.6801    0.0000 O   0  0  0  0  0  0  0  0  0  0  0  0
   -4.0000   -1.3856    0.0000 C   0  0  0  0  0  0  0  0  0  0  0  0
   -4.9405   -0.0912    0.0000 C   0  0  0  0  0  0  0  0  0  0  0  0
   -6.4621   -0.5856    0.0000 N   0  0  0  0  0  0  0  0  0  0  0  0
   -2.4000   -1.3856    0.0000 C   0  0  0  0  0  0  0  0  0  0  0  0
   -1.6000    0.0000    0.0000 O   0  0  0  0  0  0  0  0  0  0  0  0
    0.0000    0.0000    0.0000 C   0  0  0  0  0  0  0  0  0  0  0  0
    0.8000   -1.3856    0.0000 C   0  0  0  0  0  0  0  0  0  0  0  0
    2.4000   -1.3856    0.0000 C   0  0  0  0  0  0  0  0  0  0  0  0
    3.2000   -2.7713    0.0000 C   0  0  0  0  0  0  0  0  0  0  0  0
    3.2000    0.0000    0.0000 C   0  0  0  0  0  0  0  0  0  0  0  0
    2.4000    1.3856    0.0000 C   0  0  0  0  0  0  0  0  0  0  0  0
    3.2000    2.7713    0.0000 C   0  0  0  0  0  0  0  0  0  0  0  0
    0.8000    1.3856    0.0000 C   0  0  0  0  0  0  0  0  0  0  0  0
  1  2  2  0  0  0  0
  2  3  1  0  0  0  0
  2  6  1  0  0  0  0
  3  4  1  0  0  0  0
  4  5  1  0  0  0  0
  4  7  1  6  0  0  0
  5  6  1  0  0  0  0
  7  8  1  0  0  0  0
  8  9  1  0  0  0  0
  9 10  1  0  0  0  0
  9 16  2  0  0  0  0
 10 11  2  0  0  0  0
 11 12  1  0  0  0  0
 11 13  1  0  0  0  0
 13 14  2  0  0  0  0
 14 15  1  0  0  0  0
 14 16  1  0  0  0  0
M  END
> <Acceptable>
true

> <IC50>
N/A

$$$$

Generated by Molecular Materials Informatics

  9  8  0  0  0  0  0  0  0  0999 V2000
   -2.7713   -1.6000    0.0000 N   0  0  0  0  0  0  0  0  0  0  0  0
   -2.7713    0.0000    0.0000 C   0  0  0  0  0  0  0  0  0  0  0  0
   -4.1569    0.8000    0.0000 N   0  0  0  0  0  0  0  0  0  0  0  0
   -1.3856    0.8000    0.0000 N   0  0  0  0  0  0  0  0  0  0  0  0
    0.0000    0.0000    0.0000 C   0  0  0  0  0  0  0  0  0  0  0  0
    0.0000   -1.6000    0.0000 N   0  0  0  0  0  0  0  0  0  0  0  0
    1.3856    0.8000    0.0000 N   0  0  0  0  0  0  0  0  0  0  0  0
    1.3856    2.4000    0.0000 C   0  0  0  0  0  0  0  0  0  0  0  0
    2.7713    0.0000    0.0000 C   0  0  0  0  0  0  0  0  0  0  0  0
  1  2  2  0  0  0  0
  2  3  1  0  0  0  0
  2  4  1  0  0  0  0
  4  5  1  0  0  0  0
  5  6  2  0  0  0  0
  5  7  1  0  0  0  0
  7  8  1  0  0  0  0
  7  9  1  0  0  0  0
M  END
> <Acceptable>
true

> <IC50>
N/A

$$$$

Generated by Molecular Materials Informatics

 23 24  0  0  0  0  0  0  0  0999 V2000
    0.0000    2.7713    0.0000 O   0  0  0  0  0  0  0  0  0  0  0  0
   -0.8000    1.3856    0.0000 C   0  0  0  0  0  0  0  0  0  0  0  0
   -2.4000    1.3856    0.0000 C   0  0  0  0  0  0  0  0  0  0  0  0
   -3.2000    2.7713    0.0000 C   0  0  0  0  0  0  0  0  0  0  0  0
    0.0000    0.0000    0.0000 C   0  0  0  0  0  0  0  0  0  0  0  0
    0.8000   -1.3856    0.0000 C   0  0  0  0  0  0  0  0  0  0  0  0
    2.1856   -2.1856    0.0000 C   0  0  0  0  0  0  0  0  0  0  0  0
    2.1856   -3.7856    0.0000 N   0  0  0  0  0  0  0  0  0  0  0  0
    0.8000   -4.5856    0.0000 C   0  0  0  0  0  0  0  0  0  0  0  0
    3.5713   -4.5856    0.0000 C   0  0  0  0  0  0  0  0  0  0  0  0
    3.5713   -1.3856    0.0000 C   0  0  0  0  0  0  0  0  0  0  0  0
   -1.3856   -0.8000    0.0000 C   0  0  0  0  0  0  0  0  0  0  0  0
   -2.7713    0.0000    0.0000 C   0  0  0  0  0  0  0  0  0  0  0  0
   -4.1569   -0.8000    0.0000 C   0  0  0  0  0  0  0  0  0  0  0  0
   -4.1569   -2.4000    0.0000 C   0  0  0  0  0  0  0  0  0  0  0  0
   -2.7713   -3.2000    0.0000 C   0  0  0  0  0  0  0  0  0  0  0  0
   -1.3856   -2.4000    0.0000 C   0  0  0  0  0  0  0  0  0  0  0  0
    1.3856    0.8000    0.0000 C   0  0  0  0  0  0  0  0  0  0  0  0
    2.7713    0.0000    0.0000 C   0  0  0  0  0  0  0  0  0  0  0  0
    4.1569    0.8000    0.0000 C   0  0  0  0  0  0  0  0  0  0  0  0
    4.1569    2.4000    0.0000 C   0  0  0  0  0  0  0  0  0  0  0  0
    2.7713    3.2000    0.0000 C   0  0  0  0  0  0  0  0  0  0  0  0
    1.3856    2.4000    0.0000 C   0  0  0  0  0  0  0  0  0  0  0  0
  1  2  2  0  0  0  0
  2  3  1  0  0  0  0
  2  5  1  0  0  0  0
  3  4  1  0  0  0  0
  5  6  1  0  0  0  0
  5 12  1  0  0  0  0
  5 18  1  0  0  0  0
  6  7  1  0  0  0  0
  7  8  1  0  0  0  0
  7 11  1  1  0  0  0
  8  9  1  0  0  0  0
  8 10  1  0  0  0  0
 12 13  1  0  0  0  0
 12 17  2  0  0  0  0
 13 14  2  0  0  0  0
 14 15  1  0  0  0  0
 15 16  2  0  0  0  0
 16 17  1  0  0  0  0
 18 19  1  0  0  0  0
 18 23  2  0  0  0  0
 19 20  2  0  0  0  0
 20 21  1  0  0  0  0
 21 22  2  0  0  0  0
 22 23  1  0  0  0  0
M  END
> <Acceptable>
false

> <IC50>
9.77

$$$$

Generated by Molecular Materials Informatics

 11 11  0  0  0  0  0  0  0  0999 V2000
   -4.1569    0.8000    0.0000 N   0  0  0  0  0  0  0  0  0  0  0  0
   -5.5426    0.0000    0.0000 C   0  0  0  0  0  0  0  0  0  0  0  0
   -2.7713    0.0000    0.0000 C   0  0  0  0  0  0  0  0  0  0  0  0
   -2.7713   -1.6000    0.0000 C   0  0  0  0  0  0  0  0  0  0  0  0
   -1.3856    0.8000    0.0000 C   0  0  0  0  0  0  0  0  0  0  0  0
    0.0000    0.0000    0.0000 C   0  0  0  0  0  0  0  0  0  0  0  0
    0.0000   -1.6000    0.0000 C   0  0  0  0  0  0  0  0  0  0  0  0
    1.3856   -2.4000    0.0000 C   0  0  0  0  0  0  0  0  0  0  0  0
    2.7713   -1.6000    0.0000 C   0  0  0  0  0  0  0  0  0  0  0  0
    2.7713    0.0000    0.0000 C   0  0  0  0  0  0  0  0  0  0  0  0
    1.3856    0.8000    0.0000 C   0  0  0  0  0  0  0  0  0  0  0  0
  1  2  1  0  0  0  0
  1  3  1  0  0  0  0
  3  4  1  1  0  0  0
  3  5  1  0  0  0  0
  5  6  1  0  0  0  0
  6  7  1  0  0  0  0
  6 11  2  0  0  0  0
  7  8  2  0  0  0  0
  8  9  1  0  0  0  0
  9 10  2  0  0  0  0
 10 11  1  0  0  0  0
M  END
> <Acceptable>
true

> <IC50>
N/A

$$$$

Generated by Molecular Materials Informatics

 14 14  0  0  0  0  0  0  0  0999 V2000
    1.3856    0.8000    0.0000 S   0  0  0  0  0  0  0  0  0  0  0  0
    0.0000    0.0000    0.0000 C   0  0  0  0  0  0  0  0  0  0  0  0
   -1.4617    0.6508    0.0000 S   0  0  0  0  0  0  0  0  0  0  0  0
   -0.8109    2.1125    0.0000 O   0  0  0  0  0  0  0  0  0  0  0  0
   -2.1125   -0.8109    0.0000 O   0  0  0  0  0  0  0  0  0  0  0  0
   -2.9233    1.3016    0.0000 N   0  0  0  0  0  0  0  0  0  0  0  0
    0.3327   -1.5650    0.0000 N   0  0  0  0  0  0  0  0  0  0  0  0
    1.9239   -1.7323    0.0000 N   0  0  0  0  0  0  0  0  0  0  0  0
    2.7239   -3.1179    0.0000 C   0  0  0  0  0  0  0  0  0  0  0  0
    2.5747   -0.2706    0.0000 C   0  0  0  0  0  0  0  0  0  0  0  0
    4.1397    0.0620    0.0000 N   0  0  0  0  0  0  0  0  0  0  0  0
    4.6341    1.5837    0.0000 C   0  0  0  0  0  0  0  0  0  0  0  0
    3.5635    2.7728    0.0000 O   0  0  0  0  0  0  0  0  0  0  0  0
    6.1992    1.9164    0.0000 C   0  0  0  0  0  0  0  0  0  0  0  0
  1  2  1  0  0  0  0
  1 10  1  0  0  0  0
  2  3  1  0  0  0  0
  2  7  2  0  0  0  0
  3  4  2  0  0  0  0
  3  5  2  0  0  0  0
  3  6  1  0  0  0  0
  7  8  1  0  0  0  0
  8  9  1  0  0  0  0
  8 10  1  0  0  0  0
 10 11  2  0  0  0  0
 11 12  1  0  0  0  0
 12 13  2  0  0  0  0
 12 14  1  0  0  0  0
M  END
> <Acceptable>
true

> <IC50>
N/A

$$$$

Generated by Molecular Materials Informatics

 17 17  0  0  0  0  0  0  0  0999 V2000
    8.3138   -1.6000    0.0000 O   0  0  0  0  0  0  0  0  0  0  0  0
    8.3138    0.0000    0.0000 C   0  0  0  0  0  0  0  0  0  0  0  0
    6.9282    0.8000    0.0000 O   0  0  0  0  0  0  0  0  0  0  0  0
    5.5426    0.0000    0.0000 C   0  0  0  0  0  0  0  0  0  0  0  0
    4.1569    0.8000    0.0000 C   0  0  0  0  0  0  0  0  0  0  0  0
    4.1569    2.4000    0.0000 O   0  0  0  0  0  0  0  0  0  0  0  0
    2.7713    0.0000    0.0000 C   0  0  0  0  0  0  0  0  0  0  0  0
    1.3856    0.8000    0.0000 O   0  0  0  0  0  0  0  0  0  0  0  0
    0.0000    0.0000    0.0000 C   0  0  0  0  0  0  0  0  0  0  0  0
    0.0000   -1.6000    0.0000 C   0  0  0  0  0  0  0  0  0  0  0  0
   -1.3856   -2.4000    0.0000 C   0  0  0  0  0  0  0  0  0  0  0  0
   -2.7713   -1.6000    0.0000 C   0  0  0  0  0  0  0  0  0  0  0  0
   -2.7713    0.0000    0.0000 C   0  0  0  0  0  0  0  0  0  0  0  0
   -1.3856    0.8000    0.0000 C   0  0  0  0  0  0  0  0  0  0  0  0
   -1.3856    2.4000    0.0000 O   0  0  0  0  0  0  0  0  0  0  0  0
   -2.7713    3.2000    0.0000 C   0  0  0  0  0  0  0  0  0  0  0  0
    9.6995    0.8000    0.0000 N   0  0  0  0  0  0  0  0  0  0  0  0
  1  2  2  0  0  0  0
  2  3  1  0  0  0  0
  2 17  1  0  0  0  0
  3  4  1  0  0  0  0
  4  5  1  0  0  0  0
  5  6  1  1  0  0  0
  5  7  1  0  0  0  0
  7  8  1  0  0  0  0
  8  9  1  0  0  0  0
  9 10  1  0  0  0  0
  9 14  2  0  0  0  0
 10 11  2  0  0  0  0
 11 12  1  0  0  0  0
 12 13  2  0  0  0  0
 13 14  1  0  0  0  0
 14 15  1  0  0  0  0
 15 16  1  0  0  0  0
M  END
> <Acceptable>
true

> <IC50>
N/A

$$$$

Generated by Molecular Materials Informatics

 16 18  0  0  0  0  0  0  0  0999 V2000
   -4.1569    0.8000    0.0000 O   0  0  0  0  0  0  0  0  0  0  0  0
   -2.7713    0.0000    0.0000 C   0  0  0  0  0  0  0  0  0  0  0  0
   -1.3856    0.8000    0.0000 O   0  0  0  0  0  0  0  0  0  0  0  0
    0.0000    0.0000    0.0000 C   0  0  0  0  0  0  0  0  0  0  0  0
    0.0000   -1.6000    0.0000 C   0  0  0  0  0  0  0  0  0  0  0  0
   -1.3856   -2.4000    0.0000 C   0  0  0  0  0  0  0  0  0  0  0  0
   -2.7713   -1.6000    0.0000 C   0  0  0  0  0  0  0  0  0  0  0  0
    1.3856   -2.4000    0.0000 C   0  0  0  0  0  0  0  0  0  0  0  0
    2.7713   -1.6000    0.0000 C   0  0  0  0  0  0  0  0  0  0  0  0
    4.2930   -2.0944    0.0000 C   0  0  0  0  0  0  0  0  0  0  0  0
    5.2334   -0.8000    0.0000 C   0  0  0  0  0  0  0  0  0  0  0  0
    4.2930    0.4944    0.0000 O   0  0  0  0  0  0  0  0  0  0  0  0
    2.7713    0.0000    0.0000 C   0  0  0  0  0  0  0  0  0  0  0  0
    1.3856    0.8000    0.0000 C   0  0  0  0  0  0  0  0  0  0  0  0
    1.3856    2.4000    0.0000 O   0  0  0  0  0  0  0  0  0  0  0  0
    2.7713    3.2000    0.0000 C   0  0  0  0  0  0  0  0  0  0  0  0
  1  2  2  0  0  0  0
  2  3  1  0  0  0  0
  2  7  1  0  0  0  0
  3  4  1  0  0  0  0
  4  5  1  0  0  0  0
  4 14  2  0  0  0  0
  5  6  1  0  0  0  0
  5  8  2  0  0  0  0
  6  7  2  0  0  0  0
  8  9  1  0  0  0  0
  9 10  1  0  0  0  0
  9 13  2  0  0  0  0
 10 11  2  0  0  0  0
 11 12  1  0  0  0  0
 12 13  1  0  0  0  0
 13 14  1  0  0  0  0
 14 15  1  0  0  0  0
 15 16  1  0  0  0  0
M  END
> <Acceptable>
true

> <IC50>
N/A

$$$$

Generated by Molecular Materials Informatics

 35 36  0  0  0  0  0  0  0  0999 V2000
   -4.8000   -2.7713    0.0000 O   0  0  0  0  0  0  0  0  0  0  0  0
    0.0000   -5.5426    0.0000 O   0  0  0  0  0  0  0  0  0  0  0  0
   -3.2000   -5.5426    0.0000 O   0  0  0  0  0  0  0  0  0  0  0  0
   13.8564    0.0000    0.0000 O   0  0  0  0  0  0  0  0  0  0  0  0
   13.8564   -3.2000    0.0000 O   0  0  0  0  0  0  0  0  0  0  0  0
    5.5426    0.0000    0.0000 N   0  0  0  0  0  0  0  0  0  0  0  0
   -2.7713    1.6000    0.0000 N   0  0  0  0  0  0  0  0  0  0  0  0
    0.0000    0.0000    0.0000 C   0  0  0  0  0  0  0  0  0  0  0  0
    0.8000    1.3856    0.0000 C   0  0  0  0  0  0  0  0  0  0  0  0
    1.3856   -0.8000    0.0000 C   0  0  0  0  0  0  0  0  0  0  0  0
    2.7713    0.0000    0.0000 C   0  0  0  0  0  0  0  0  0  0  0  0
   -0.8000   -1.3856    0.0000 C   0  0  0  0  0  0  0  0  0  0  0  0
    4.1569   -0.8000    0.0000 C   0  0  0  0  0  0  0  0  0  0  0  0
    2.4000    1.3856    0.0000 C   0  0  0  0  0  0  0  0  0  0  0  0
    0.0000    2.7713    0.0000 C   0  0  0  0  0  0  0  0  0  0  0  0
   -1.3856    0.8000    0.0000 C   0  0  0  0  0  0  0  0  0  0  0  0
    0.0000   -2.7713    0.0000 C   0  0  0  0  0  0  0  0  0  0  0  0
   -2.4000   -1.3856    0.0000 C   0  0  0  0  0  0  0  0  0  0  0  0
    6.9282   -0.8000    0.0000 C   0  0  0  0  0  0  0  0  0  0  0  0
   -3.2000   -2.7713    0.0000 C   0  0  0  0  0  0  0  0  0  0  0  0
   -0.8000   -4.1569    0.0000 C   0  0  0  0  0  0  0  0  0  0  0  0
    5.5426    1.6000    0.0000 C   0  0  0  0  0  0  0  0  0  0  0  0
   -2.4000   -4.1569    0.0000 C   0  0  0  0  0  0  0  0  0  0  0  0
    8.3138    0.0000    0.0000 C   0  0  0  0  0  0  0  0  0  0  0  0
    9.6995   -0.8000    0.0000 C   0  0  0  0  0  0  0  0  0  0  0  0
   11.0851    0.0000    0.0000 C   0  0  0  0  0  0  0  0  0  0  0  0
    9.6995   -2.4000    0.0000 C   0  0  0  0  0  0  0  0  0  0  0  0
   -5.6000   -1.3856    0.0000 C   0  0  0  0  0  0  0  0  0  0  0  0
    1.6000   -5.5426    0.0000 C   0  0  0  0  0  0  0  0  0  0  0  0
   12.4708   -0.8000    0.0000 C   0  0  0  0  0  0  0  0  0  0  0  0
   -4.8000   -5.5426    0.0000 C   0  0  0  0  0  0  0  0  0  0  0  0
   11.0851   -3.2000    0.0000 C   0  0  0  0  0  0  0  0  0  0  0  0
   12.4708   -2.4000    0.0000 C   0  0  0  0  0  0  0  0  0  0  0  0
   13.8564    1.6000    0.0000 C   0  0  0  0  0  0  0  0  0  0  0  0
   13.8564   -4.8000    0.0000 C   0  0  0  0  0  0  0  0  0  0  0  0
  1 20  1  0  0  0  0
  1 28  1  0  0  0  0
  2 21  1  0  0  0  0
  2 29  1  0  0  0  0
  3 23  1  0  0  0  0
  3 31  1  0  0  0  0
  4 30  1  0  0  0  0
  4 34  1  0  0  0  0
  5 33  1  0  0  0  0
  5 35  1  0  0  0  0
  6 13  1  0  0  0  0
  6 19  1  0  0  0  0
  6 22  1  1  0  0  0
  7 16  3  0  0  0  0
  8  9  1  0  0  0  0
  8 10  1  0  0  0  0
  8 12  1  0  0  0  0
  8 16  1  6  0  0  0
  9 14  1  0  0  0  0
  9 15  1  0  0  0  0
 10 11  1  0  0  0  0
 11 13  1  0  0  0  0
 12 17  2  0  0  0  0
 12 18  1  0  0  0  0
 17 21  1  0  0  0  0
 18 20  2  0  0  0  0
 19 24  1  0  0  0  0
 20 23  1  0  0  0  0
 21 23  2  0  0  0  0
 24 25  1  0  0  0  0
 25 26  2  0  0  0  0
 25 27  1  0  0  0  0
 26 30  1  0  0  0  0
 27 32  2  0  0  0  0
 30 33  2  0  0  0  0
 32 33  1  0  0  0  0
M  END
> <Acceptable>
false

> <IC50>
6.6

$$$$

Generated by Molecular Materials Informatics

 15 16  0  0  0  0  0  0  0  0999 V2000
   -2.3831    3.3856    0.0000 O   0  0  0  0  0  0  0  0  0  0  0  0
   -1.7323    1.9239    0.0000 C   0  0  0  0  0  0  0  0  0  0  0  0
   -2.5323    0.5383    0.0000 N   0  0  0  0  0  0  0  0  0  0  0  0
   -4.1235    0.3710    0.0000 C   0  0  0  0  0  0  0  0  0  0  0  0
   -1.4617   -0.6508    0.0000 C   0  0  0  0  0  0  0  0  0  0  0  0
   -1.7943   -2.2158    0.0000 O   0  0  0  0  0  0  0  0  0  0  0  0
    0.0000    0.0000    0.0000 C   0  0  0  0  0  0  0  0  0  0  0  0
    0.4944   -1.5217    0.0000 C   0  0  0  0  0  0  0  0  0  0  0  0
   -0.1672    1.5912    0.0000 C   0  0  0  0  0  0  0  0  0  0  0  0
    1.5650    0.3327    0.0000 C   0  0  0  0  0  0  0  0  0  0  0  0
    2.6356   -0.8564    0.0000 C   0  0  0  0  0  0  0  0  0  0  0  0
    4.2007   -0.5237    0.0000 C   0  0  0  0  0  0  0  0  0  0  0  0
    4.6951    0.9980    0.0000 C   0  0  0  0  0  0  0  0  0  0  0  0
    3.6245    2.1870    0.0000 C   0  0  0  0  0  0  0  0  0  0  0  0
    2.0595    1.8543    0.0000 C   0  0  0  0  0  0  0  0  0  0  0  0
  1  2  2  0  0  0  0
  2  3  1  0  0  0  0
  2  9  1  0  0  0  0
  3  4  1  0  0  0  0
  3  5  1  0  0  0  0
  5  6  2  0  0  0  0
  5  7  1  0  0  0  0
  7  8  1  6  0  0  0
  7  9  1  0  0  0  0
  7 10  1  0  0  0  0
 10 11  1  0  0  0  0
 10 15  2  0  0  0  0
 11 12  2  0  0  0  0
 12 13  1  0  0  0  0
 13 14  2  0  0  0  0
 14 15  1  0  0  0  0
M  END
> <Acceptable>
true

> <IC50>
N/A

$$$$

Generated by Molecular Materials Informatics

 20 21  0  0  0  0  0  0  0  0999 V2000
    2.7713   -4.8000    0.0000 Cl  0  0  0  0  0  0  0  0  0  0  0  0
    2.7713   -3.2000    0.0000 C   0  0  0  0  0  0  0  0  0  0  0  0
    1.3856   -2.4000    0.0000 C   0  0  0  0  0  0  0  0  0  0  0  0
    0.0000   -3.2000    0.0000 N   0  0  0  0  0  0  0  0  0  0  0  0
   -1.3856   -2.4000    0.0000 C   0  0  0  0  0  0  0  0  0  0  0  0
   -2.7713   -3.2000    0.0000 C   0  0  0  0  0  0  0  0  0  0  0  0
   -4.1569   -2.4000    0.0000 C   0  0  0  0  0  0  0  0  0  0  0  0
   -5.5426   -3.2000    0.0000 Cl  0  0  0  0  0  0  0  0  0  0  0  0
   -4.1569   -0.8000    0.0000 C   0  0  0  0  0  0  0  0  0  0  0  0
   -5.5426    0.0000    0.0000 S   0  0  0  0  0  0  0  0  0  0  0  0
   -6.3426   -1.3856    0.0000 O   0  0  0  0  0  0  0  0  0  0  0  0
   -4.7426    1.3856    0.0000 O   0  0  0  0  0  0  0  0  0  0  0  0
   -6.9282    0.8000    0.0000 N   0  0  0  0  0  0  0  0  0  0  0  0
   -2.7713    0.0000    0.0000 C   0  0  0  0  0  0  0  0  0  0  0  0
   -1.3856   -0.8000    0.0000 C   0  0  0  0  0  0  0  0  0  0  0  0
    0.0000    0.0000    0.0000 S   0  0  0  0  0  0  0  0  0  0  0  0
   -1.0285    1.2257    0.0000 O   0  0  0  0  0  0  0  0  0  0  0  0
    1.0285    1.2257    0.0000 O   0  0  0  0  0  0  0  0  0  0  0  0
    1.3856   -0.8000    0.0000 N   0  0  0  0  0  0  0  0  0  0  0  0
    2.7713    0.0000    0.0000 C   0  0  0  0  0  0  0  0  0  0  0  0
  1  2  1  0  0  0  0
  3  2  1  6  0  0  0
  3  4  1  0  0  0  0
  3 19  1  0  0  0  0
  4  5  1  0  0  0  0
  5  6  1  0  0  0  0
  5 15  2  0  0  0  0
  6  7  2  0  0  0  0
  7  8  1  0  0  0  0
  7  9  1  0  0  0  0
  9 10  1  0  0  0  0
  9 14  2  0  0  0  0
 10 11  2  0  0  0  0
 10 12  2  0  0  0  0
 10 13  1  0  0  0  0
 14 15  1  0  0  0  0
 15 16  1  0  0  0  0
 16 17  2  0  0  0  0
 16 18  2  0  0  0  0
 16 19  1  0  0  0  0
 19 20  1  1  0  0  0
M  END
> <Acceptable>
true

> <IC50>
N/A

$$$$

Generated by Molecular Materials Informatics

 13 14  0  0  0  0  0  0  0  0999 V2000
   -2.1617    2.0178    0.0000 O   0  0  0  0  0  0  0  0  0  0  0  0
   -2.4355    0.4414    0.0000 C   0  0  0  0  0  0  0  0  0  0  0  0
   -3.9404    0.9848    0.0000 O   0  0  0  0  0  0  0  0  0  0  0  0
   -5.5404    0.9807    0.0000 C   0  0  0  0  0  0  0  0  0  0  0  0
   -1.6320   -0.9422    0.0000 C   0  0  0  0  0  0  0  0  0  0  0  0
   -2.9147   -0.7228    0.0000 C   0  0  0  0  0  0  0  0  0  0  0  0
   -1.8900   -1.9616    0.0000 C   0  0  0  0  0  0  0  0  0  0  0  0
   -0.3450   -1.0349    0.0000 C   0  0  0  0  0  0  0  0  0  0  0  0
    1.0231   -1.2302    0.0000 N   0  0  0  0  0  0  0  0  0  0  0  0
    2.4199   -2.0104    0.0000 C   0  0  0  0  0  0  0  0  0  0  0  0
    0.0000    0.0000    0.0000 C   0  0  0  0  0  0  0  0  0  0  0  0
    0.1825    1.7005    0.0000 C   0  0  0  0  0  0  0  0  0  0  0  0
   -0.4939    0.4660    0.0000 C   0  0  0  0  0  0  0  0  0  0  0  0
  1  2  2  0  0  0  0
  2  3  1  0  0  0  0
  2  5  1  0  0  0  0
  3  4  1  0  0  0  0
  5  6  2  0  0  0  0
 11  5  1  1  0  0  0
  6  7  1  0  0  0  0
  7  8  1  0  0  0  0
  8  9  1  0  0  0  0
  8 13  1  0  0  0  0
  9 10  1  1  0  0  0
  9 11  1  0  0  0  0
 11 12  1  0  0  0  0
 12 13  1  0  0  0  0
M  END
> <Acceptable>
true

> <IC50>
169.82

$$$$

Generated by Molecular Materials Informatics

 26 31  0  0  0  0  0  0  0  0999 V2000
   -2.7713   -1.6000    0.0000 O   0  0  0  0  0  0  0  0  0  0  0  0
    3.1745    0.8000    0.0000 O   0  0  0  0  0  0  0  0  0  0  0  0
    2.7713   -3.2000    0.0000 O   0  0  0  0  0  0  0  0  0  0  0  0
    2.7713    4.8000    0.0000 O   0  0  0  0  0  0  0  0  0  0  0  0
   -2.4716    1.1620    0.0000 N   0  3  0  0  0  0  0  0  0  0  0  0
    0.0000    0.0000    0.0000 C   0  0  0  0  0  0  0  0  0  0  0  0
   -1.3856   -0.8000    0.0000 C   0  0  0  0  0  0  0  0  0  0  0  0
   -2.7713    0.0000    0.0000 C   0  0  0  0  0  0  0  0  0  0  0  0
   -0.2997    1.1620    0.0000 C   0  0  0  0  0  0  0  0  0  0  0  0
   -1.3856    1.6725    0.0000 C   0  0  0  0  0  0  0  0  0  0  0  0
    1.3856   -0.8000    0.0000 C   0  0  0  0  0  0  0  0  0  0  0  0
    0.0000    1.6000    0.0000 C   0  0  0  0  0  0  0  0  0  0  0  0
   -4.0712    1.1968    0.0000 C   0  0  0  0  0  0  0  0  0  0  0  0
   -2.7713    1.6000    0.0000 C   0  0  0  0  0  0  0  0  0  0  0  0
   -1.3856   -2.4000    0.0000 C   0  0  0  0  0  0  0  0  0  0  0  0
   -4.8409    2.5995    0.0000 C   0  0  0  0  0  0  0  0  0  0  0  0
   -1.3856    2.4000    0.0000 C   0  0  0  0  0  0  0  0  0  0  0  0
   -2.8033    2.7272    0.0000 C   0  0  0  0  0  0  0  0  0  0  0  0
    0.0000   -3.2000    0.0000 C   0  0  0  0  0  0  0  0  0  0  0  0
    1.3856   -2.4000    0.0000 C   0  0  0  0  0  0  0  0  0  0  0  0
    1.3856    2.4000    0.0000 C   0  0  0  0  0  0  0  0  0  0  0  0
   -6.2088    3.4295    0.0000 C   0  0  0  0  0  0  0  0  0  0  0  0
   -4.8060    4.1992    0.0000 C   0  0  0  0  0  0  0  0  0  0  0  0
   -1.3856    4.0000    0.0000 C   0  0  0  0  0  0  0  0  0  0  0  0
    1.3856    4.0000    0.0000 C   0  0  0  0  0  0  0  0  0  0  0  0
    0.0000    4.8000    0.0000 C   0  0  0  0  0  0  0  0  0  0  0  0
  7  1  1  6  0  0  0
 11  2  1  1  0  0  0
  2 21  1  0  0  0  0
  3 20  2  0  0  0  0
  4 25  1  0  0  0  0
  5  8  1  0  0  0  0
  5 10  1  0  0  0  0
  5 13  1  0  0  0  0
  5 18  1  1  0  0  0
  6  7  1  0  0  0  0
  6  9  1  0  0  0  0
  6 11  1  0  0  0  0
  6 12  1  1  0  0  0
  7  8  1  0  0  0  0
  7 15  1  0  0  0  0
  8 14  1  1  0  0  0
  9 10  1  0  0  0  0
 11 20  1  0  0  0  0
 12 17  2  0  0  0  0
 12 21  1  0  0  0  0
 13 16  1  0  0  0  0
 14 17  1  0  0  0  0
 15 19  1  0  0  0  0
 16 22  1  0  0  0  0
 16 23  1  0  0  0  0
 17 24  1  0  0  0  0
 19 20  1  0  0  0  0
 21 25  2  0  0  0  0
 22 23  1  0  0  0  0
 24 26  2  0  0  0  0
 25 26  1  0  0  0  0
M  CHG  1   5   1
M  END
> <Acceptable>
true

> <IC50>
1606

$$$$

Generated by Molecular Materials Informatics

 17 18  0  0  0  0  0  0  0  0999 V2000
    0.0000    2.7713    0.0000 O   0  0  0  0  0  0  0  0  0  0  0  0
   -0.8000    1.3856    0.0000 C   0  0  0  0  0  0  0  0  0  0  0  0
   -2.4000    1.3856    0.0000 O   0  0  0  0  0  0  0  0  0  0  0  0
   -3.2000    2.7713    0.0000 C   0  0  0  0  0  0  0  0  0  0  0  0
    0.0000    0.0000    0.0000 C   0  0  0  0  0  0  0  0  0  0  0  0
   -0.8000   -1.3856    0.0000 C   0  0  0  0  0  0  0  0  0  0  0  0
    0.0000   -2.7713    0.0000 C   0  0  0  0  0  0  0  0  0  0  0  0
   -0.8000   -4.1569    0.0000 C   0  0  0  0  0  0  0  0  0  0  0  0
   -2.4000   -4.1569    0.0000 C   0  0  0  0  0  0  0  0  0  0  0  0
   -3.2000   -2.7713    0.0000 C   0  0  0  0  0  0  0  0  0  0  0  0
   -2.4000   -1.3856    0.0000 C   0  0  0  0  0  0  0  0  0  0  0  0
    1.6000    0.0000    0.0000 C   0  0  0  0  0  0  0  0  0  0  0  0
    2.4000    1.3856    0.0000 N   0  0  0  0  0  0  0  0  0  0  0  0
    4.0000    1.3856    0.0000 C   0  0  0  0  0  0  0  0  0  0  0  0
    4.8000    0.0000    0.0000 C   0  0  0  0  0  0  0  0  0  0  0  0
    4.0000   -1.3856    0.0000 C   0  0  0  0  0  0  0  0  0  0  0  0
    2.4000   -1.3856    0.0000 C   0  0  0  0  0  0  0  0  0  0  0  0
  1  2  2  0  0  0  0
  2  3  1  0  0  0  0
  2  5  1  0  0  0  0
  3  4  1  0  0  0  0
  5  6  1  1  0  0  0
  5 12  1  0  0  0  0
  6  7  1  0  0  0  0
  6 11  2  0  0  0  0
  7  8  2  0  0  0  0
  8  9  1  0  0  0  0
  9 10  2  0  0  0  0
 10 11  1  0  0  0  0
 12 13  1  6  0  0  0
 12 17  1  0  0  0  0
 13 14  1  0  0  0  0
 14 15  1  0  0  0  0
 15 16  1  0  0  0  0
 16 17  1  0  0  0  0
M  END
> <Acceptable>
true

> <IC50>
N/A

$$$$

Generated by Molecular Materials Informatics

 20 20  0  0  0  0  0  0  0  0999 V2000
   -1.3856    4.0000    0.0000 Cl  0  0  0  0  0  0  0  0  0  0  0  0
   -1.3856    2.4000    0.0000 C   0  0  0  0  0  0  0  0  0  0  0  0
    0.0000    1.6000    0.0000 C   0  0  0  0  0  0  0  0  0  0  0  0
    0.0000    0.0000    0.0000 C   0  0  0  0  0  0  0  0  0  0  0  0
   -1.3856   -0.8000    0.0000 C   0  0  0  0  0  0  0  0  0  0  0  0
   -1.3856   -2.4000    0.0000 O   0  0  0  0  0  0  0  0  0  0  0  0
   -2.7713   -3.2000    0.0000 C   0  0  0  0  0  0  0  0  0  0  0  0
   -2.7713    0.0000    0.0000 C   0  0  0  0  0  0  0  0  0  0  0  0
   -2.7713    1.6000    0.0000 C   0  0  0  0  0  0  0  0  0  0  0  0
   -4.1569    2.4000    0.0000 N   0  0  0  0  0  0  0  0  0  0  0  0
    1.3856   -0.8000    0.0000 C   0  0  0  0  0  0  0  0  0  0  0  0
    1.3856   -2.4000    0.0000 O   0  0  0  0  0  0  0  0  0  0  0  0
    2.7713    0.0000    0.0000 N   0  0  0  0  0  0  0  0  0  0  0  0
    4.1569   -0.8000    0.0000 C   0  0  0  0  0  0  0  0  0  0  0  0
    5.5426    0.0000    0.0000 C   0  0  0  0  0  0  0  0  0  0  0  0
    6.9282   -0.8000    0.0000 N   0  0  0  0  0  0  0  0  0  0  0  0
    6.9282   -2.4000    0.0000 C   0  0  0  0  0  0  0  0  0  0  0  0
    8.3138   -3.2000    0.0000 C   0  0  0  0  0  0  0  0  0  0  0  0
    8.3138    0.0000    0.0000 C   0  0  0  0  0  0  0  0  0  0  0  0
    9.6995   -0.8000    0.0000 C   0  0  0  0  0  0  0  0  0  0  0  0
  1  2  1  0  0  0  0
  2  3  1  0  0  0  0
  2  9  2  0  0  0  0
  3  4  2  0  0  0  0
  4  5  1  0  0  0  0
  4 11  1  0  0  0  0
  5  6  1  0  0  0  0
  5  8  2  0  0  0  0
  6  7  1  0  0  0  0
  8  9  1  0  0  0  0
  9 10  1  0  0  0  0
 11 12  2  0  0  0  0
 11 13  1  0  0  0  0
 13 14  1  0  0  0  0
 14 15  1  0  0  0  0
 15 16  1  0  0  0  0
 16 17  1  0  0  0  0
 16 19  1  0  0  0  0
 17 18  1  0  0  0  0
 19 20  1  0  0  0  0
M  END
> <Acceptable>
false

> <IC50>
5.4

$$$$

Generated by Molecular Materials Informatics

 24 26  0  0  0  0  0  0  0  0999 V2000
   -6.9282    2.4000    0.0000 Cl  0  0  0  0  0  0  0  0  0  0  0  0
   -5.5426    1.6000    0.0000 C   0  0  0  0  0  0  0  0  0  0  0  0
   -4.1569    2.4000    0.0000 C   0  0  0  0  0  0  0  0  0  0  0  0
   -2.7713    1.6000    0.0000 C   0  0  0  0  0  0  0  0  0  0  0  0
   -1.3856    2.4000    0.0000 N   0  0  0  0  0  0  0  0  0  0  0  0
    0.0000    1.6000    0.0000 C   0  0  0  0  0  0  0  0  0  0  0  0
    0.0000    0.0000    0.0000 N   0  0  0  0  0  0  0  0  0  0  0  0
   -1.3856   -0.8000    0.0000 C   0  0  0  0  0  0  0  0  0  0  0  0
   -1.3856   -2.4000    0.0000 O   0  0  0  0  0  0  0  0  0  0  0  0
   -2.7713    0.0000    0.0000 C   0  0  0  0  0  0  0  0  0  0  0  0
   -4.1569   -0.8000    0.0000 C   0  0  0  0  0  0  0  0  0  0  0  0
   -5.5426    0.0000    0.0000 C   0  0  0  0  0  0  0  0  0  0  0  0
   -6.9282   -0.8000    0.0000 S   0  0  0  0  0  0  0  0  0  0  0  0
   -7.7282    0.5856    0.0000 O   0  0  0  0  0  0  0  0  0  0  0  0
   -6.1282   -2.1856    0.0000 O   0  0  0  0  0  0  0  0  0  0  0  0
   -8.3138   -1.6000    0.0000 N   0  0  0  0  0  0  0  0  0  0  0  0
    1.3856   -0.8000    0.0000 C   0  0  0  0  0  0  0  0  0  0  0  0
    2.7713    0.0000    0.0000 C   0  0  0  0  0  0  0  0  0  0  0  0
    4.1569   -0.8000    0.0000 C   0  0  0  0  0  0  0  0  0  0  0  0
    4.1569   -2.4000    0.0000 C   0  0  0  0  0  0  0  0  0  0  0  0
    2.7713   -3.2000    0.0000 C   0  0  0  0  0  0  0  0  0  0  0  0
    1.3856   -2.4000    0.0000 C   0  0  0  0  0  0  0  0  0  0  0  0
    0.0000   -3.2000    0.0000 C   0  0  0  0  0  0  0  0  0  0  0  0
    1.3856    2.4000    0.0000 C   0  0  0  0  0  0  0  0  0  0  0  0
  1  2  1  0  0  0  0
  2  3  1  0  0  0  0
  2 12  2  0  0  0  0
  3  4  2  0  0  0  0
  4  5  1  0  0  0  0
  4 10  1  0  0  0  0
  5  6  1  0  0  0  0
  6  7  1  0  0  0  0
  6 24  1  1  0  0  0
  7  8  1  0  0  0  0
  7 17  1  0  0  0  0
  8  9  2  0  0  0  0
  8 10  1  0  0  0  0
 10 11  2  0  0  0  0
 11 12  1  0  0  0  0
 12 13  1  0  0  0  0
 13 14  2  0  0  0  0
 13 15  2  0  0  0  0
 13 16  1  0  0  0  0
 17 18  1  0  0  0  0
 17 22  2  0  0  0  0
 18 19  2  0  0  0  0
 19 20  1  0  0  0  0
 20 21  2  0  0  0  0
 21 22  1  0  0  0  0
 22 23  1  0  0  0  0
M  END
> <Acceptable>
true

> <IC50>
N/A

$$$$

Generated by Molecular Materials Informatics

 19 19  0  0  0  0  0  0  0  0999 V2000
    4.1569    2.4000    0.0000 O   0  0  0  0  0  0  0  0  0  0  0  0
    4.1569    0.8000    0.0000 C   0  0  0  0  0  0  0  0  0  0  0  0
    2.7713    0.0000    0.0000 C   0  0  0  0  0  0  0  0  0  0  0  0
    1.3856    0.8000    0.0000 O   0  0  0  0  0  0  0  0  0  0  0  0
    0.0000    0.0000    0.0000 C   0  0  0  0  0  0  0  0  0  0  0  0
    0.0000   -1.6000    0.0000 C   0  0  0  0  0  0  0  0  0  0  0  0
   -1.3856   -2.4000    0.0000 C   0  0  0  0  0  0  0  0  0  0  0  0
   -2.7713   -1.6000    0.0000 C   0  0  0  0  0  0  0  0  0  0  0  0
   -2.7713    0.0000    0.0000 C   0  0  0  0  0  0  0  0  0  0  0  0
   -1.3856    0.8000    0.0000 C   0  0  0  0  0  0  0  0  0  0  0  0
   -4.1569   -2.4000    0.0000 C   0  0  0  0  0  0  0  0  0  0  0  0
   -5.5426   -1.6000    0.0000 C   0  0  0  0  0  0  0  0  0  0  0  0
   -6.9282   -2.4000    0.0000 O   0  0  0  0  0  0  0  0  0  0  0  0
   -8.3138   -1.6000    0.0000 C   0  0  0  0  0  0  0  0  0  0  0  0
    5.5426    0.0000    0.0000 C   0  0  0  0  0  0  0  0  0  0  0  0
    6.9282    0.8000    0.0000 N   0  0  0  0  0  0  0  0  0  0  0  0
    8.3138    0.0000    0.0000 C   0  0  0  0  0  0  0  0  0  0  0  0
    8.3138   -1.6000    0.0000 C   0  0  0  0  0  0  0  0  0  0  0  0
    9.6995    0.8000    0.0000 C   0  0  0  0  0  0  0  0  0  0  0  0
  2  1  1  1  0  0  0
  2  3  1  0  0  0  0
  2 15  1  0  0  0  0
  3  4  1  0  0  0  0
  4  5  1  0  0  0  0
  5  6  1  0  0  0  0
  5 10  2  0  0  0  0
  6  7  2  0  0  0  0
  7  8  1  0  0  0  0
  8  9  2  0  0  0  0
  8 11  1  0  0  0  0
  9 10  1  0  0  0  0
 11 12  1  0  0  0  0
 12 13  1  0  0  0  0
 13 14  1  0  0  0  0
 15 16  1  0  0  0  0
 16 17  1  0  0  0  0
 17 18  1  0  0  0  0
 17 19  1  0  0  0  0
M  END
> <Acceptable>
true

> <IC50>
145

$$$$

Generated by Molecular Materials Informatics

 14 14  0  0  0  0  0  0  0  0999 V2000
   -2.4000    1.3856    0.0000 O   0  0  0  0  0  0  0  0  0  0  0  0
   -1.6000    0.0000    0.0000 C   0  0  0  0  0  0  0  0  0  0  0  0
   -2.4000   -1.3856    0.0000 O   0  0  0  0  0  0  0  0  0  0  0  0
    0.0000    0.0000    0.0000 C   0  0  0  0  0  0  0  0  0  0  0  0
    1.2694   -0.9740    0.0000 N   0  0  0  0  0  0  0  0  0  0  0  0
    0.2088   -1.5863    0.0000 C   0  0  0  0  0  0  0  0  0  0  0  0
    0.8000    1.3856    0.0000 C   0  0  0  0  0  0  0  0  0  0  0  0
    2.4000    1.3856    0.0000 C   0  0  0  0  0  0  0  0  0  0  0  0
    3.2000    0.0000    0.0000 C   0  0  0  0  0  0  0  0  0  0  0  0
    4.8000    0.0000    0.0000 C   0  0  0  0  0  0  0  0  0  0  0  0
    5.6000    1.3856    0.0000 C   0  0  0  0  0  0  0  0  0  0  0  0
    7.2000    1.3856    0.0000 O   0  0  0  0  0  0  0  0  0  0  0  0
    4.8000    2.7713    0.0000 C   0  0  0  0  0  0  0  0  0  0  0  0
    3.2000    2.7713    0.0000 C   0  0  0  0  0  0  0  0  0  0  0  0
  1  2  2  0  0  0  0
  2  3  1  0  0  0  0
  2  4  1  0  0  0  0
  4  5  1  0  0  0  0
  4  6  1  0  0  0  0
  4  7  1  0  0  0  0
  7  8  1  0  0  0  0
  8  9  1  0  0  0  0
  8 14  2  0  0  0  0
  9 10  2  0  0  0  0
 10 11  1  0  0  0  0
 11 12  1  0  0  0  0
 11 13  2  0  0  0  0
 13 14  1  0  0  0  0
M  END
> <Acceptable>
true

> <IC50>
N/A

$$$$

Generated by Molecular Materials Informatics

 13 13  0  0  0  0  0  0  0  0999 V2000
   -1.3856    0.8000    0.0000 O   0  0  0  0  0  0  0  0  0  0  0  0
   -2.7713    0.0000    0.0000 C   0  0  0  0  0  0  0  0  0  0  0  0
   -4.1569    0.8000    0.0000 C   0  0  0  0  0  0  0  0  0  0  0  0
   -4.1569    2.4000    0.0000 N   0  0  0  0  0  0  0  0  0  0  0  0
   -5.5426    0.0000    0.0000 C   0  0  0  0  0  0  0  0  0  0  0  0
    0.0000    0.0000    0.0000 C   0  0  0  0  0  0  0  0  0  0  0  0
    0.0000   -1.6000    0.0000 C   0  0  0  0  0  0  0  0  0  0  0  0
   -1.3856   -2.4000    0.0000 C   0  0  0  0  0  0  0  0  0  0  0  0
    1.3856   -2.4000    0.0000 C   0  0  0  0  0  0  0  0  0  0  0  0
    2.7713   -1.6000    0.0000 C   0  0  0  0  0  0  0  0  0  0  0  0
    2.7713    0.0000    0.0000 C   0  0  0  0  0  0  0  0  0  0  0  0
    1.3856    0.8000    0.0000 C   0  0  0  0  0  0  0  0  0  0  0  0
    1.3856    2.4000    0.0000 C   0  0  0  0  0  0  0  0  0  0  0  0
  1  2  1  0  0  0  0
  1  6  1  0  0  0  0
  2  3  1  0  0  0  0
  3  4  1  1  0  0  0
  3  5  1  0  0  0  0
  6  7  1  0  0  0  0
  6 12  2  0  0  0  0
  7  8  1  0  0  0  0
  7  9  2  0  0  0  0
  9 10  1  0  0  0  0
 10 11  2  0  0  0  0
 11 12  1  0  0  0  0
 12 13  1  0  0  0  0
M  END
> <Acceptable>
false

> <IC50>
10

$$$$

Generated by Molecular Materials Informatics

 20 23  0  0  0  0  0  0  0  0999 V2000
    1.3856   -0.8000    0.0000 N   0  0  0  0  0  0  0  0  0  0  0  0
   -1.3856   -2.4000    0.0000 N   0  0  0  0  0  0  0  0  0  0  0  0
    0.0000    0.0000    0.0000 C   0  0  0  0  0  0  0  0  0  0  0  0
   -1.3856   -0.8000    0.0000 C   0  0  0  0  0  0  0  0  0  0  0  0
    1.3856   -2.4000    0.0000 C   0  0  0  0  0  0  0  0  0  0  0  0
   -0.2385    1.5821    0.0000 C   0  0  0  0  0  0  0  0  0  0  0  0
    0.0000   -3.2000    0.0000 C   0  0  0  0  0  0  0  0  0  0  0  0
    2.8750   -0.2155    0.0000 C   0  0  0  0  0  0  0  0  0  0  0  0
    0.8498    2.7550    0.0000 C   0  0  0  0  0  0  0  0  0  0  0  0
    2.4453    2.6354    0.0000 C   0  0  0  0  0  0  0  0  0  0  0  0
    3.3466    1.3135    0.0000 C   0  0  0  0  0  0  0  0  0  0  0  0
   -2.7713   -3.2000    0.0000 C   0  0  0  0  0  0  0  0  0  0  0  0
   -1.7984    1.9382    0.0000 C   0  0  0  0  0  0  0  0  0  0  0  0
    3.9633   -1.3883    0.0000 C   0  0  0  0  0  0  0  0  0  0  0  0
    0.3782    4.2839    0.0000 C   0  0  0  0  0  0  0  0  0  0  0  0
    4.9065    1.6695    0.0000 C   0  0  0  0  0  0  0  0  0  0  0  0
   -2.2700    3.4671    0.0000 C   0  0  0  0  0  0  0  0  0  0  0  0
   -1.1817    4.6400    0.0000 C   0  0  0  0  0  0  0  0  0  0  0  0
    5.5232   -1.0323    0.0000 C   0  0  0  0  0  0  0  0  0  0  0  0
    5.9948    0.4966    0.0000 C   0  0  0  0  0  0  0  0  0  0  0  0
  1  3  1  0  0  0  0
  1  5  1  0  0  0  0
  1  8  1  0  0  0  0
  2  4  1  0  0  0  0
  2  7  1  0  0  0  0
  2 12  1  1  0  0  0
  3  4  1  0  0  0  0
  3  6  1  1  0  0  0
  5  7  1  0  0  0  0
  6  9  2  0  0  0  0
  6 13  1  0  0  0  0
  8 11  2  0  0  0  0
  8 14  1  0  0  0  0
  9 10  1  0  0  0  0
  9 15  1  0  0  0  0
 10 11  1  0  0  0  0
 11 16  1  0  0  0  0
 13 17  2  0  0  0  0
 14 19  2  0  0  0  0
 15 18  2  0  0  0  0
 16 20  2  0  0  0  0
 17 18  1  0  0  0  0
 19 20  1  0  0  0  0
M  END
> <Acceptable>
false

> <IC50>
14.78

$$$$

Generated by Molecular Materials Informatics

 36 39  0  0  0  0  0  0  0  0999 V2000
   -5.5426    4.8000    0.0000 F   0  0  0  0  0  0  0  0  0  0  0  0
   -4.1569    4.0000    0.0000 C   0  0  0  0  0  0  0  0  0  0  0  0
   -2.7713    4.8000    0.0000 C   0  0  0  0  0  0  0  0  0  0  0  0
   -1.3856    4.0000    0.0000 C   0  0  0  0  0  0  0  0  0  0  0  0
   -1.3856    2.4000    0.0000 C   0  0  0  0  0  0  0  0  0  0  0  0
   -2.7713    1.6000    0.0000 C   0  0  0  0  0  0  0  0  0  0  0  0
   -4.1569    2.4000    0.0000 C   0  0  0  0  0  0  0  0  0  0  0  0
   -2.7713    0.0000    0.0000 C   0  0  0  0  0  0  0  0  0  0  0  0
   -1.3856   -0.8000    0.0000 C   0  0  0  0  0  0  0  0  0  0  0  0
    0.0000    0.0000    0.0000 C   0  0  0  0  0  0  0  0  0  0  0  0
    0.5472   -1.5035    0.0000 O   0  0  0  0  0  0  0  0  0  0  0  0
   -0.4812   -2.7292    0.0000 C   0  0  0  0  0  0  0  0  0  0  0  0
   -2.0569   -2.4513    0.0000 O   0  0  0  0  0  0  0  0  0  0  0  0
    0.0660   -4.2327    0.0000 C   0  0  0  0  0  0  0  0  0  0  0  0
   -0.9625   -5.4584    0.0000 O   0  0  0  0  0  0  0  0  0  0  0  0
   -0.4152   -6.9619    0.0000 C   0  0  0  0  0  0  0  0  0  0  0  0
    1.5757    0.2778    0.0000 C   0  0  0  0  0  0  0  0  0  0  0  0
    2.6042   -0.9478    0.0000 C   0  0  0  0  0  0  0  0  0  0  0  0
    4.1798   -0.6700    0.0000 N   0  0  0  0  0  0  0  0  0  0  0  0
    4.7271    0.8335    0.0000 C   0  0  0  0  0  0  0  0  0  0  0  0
    5.2083   -1.8957    0.0000 C   0  0  0  0  0  0  0  0  0  0  0  0
    6.7840   -1.6178    0.0000 C   0  0  0  0  0  0  0  0  0  0  0  0
    7.8125   -2.8435    0.0000 C   0  0  0  0  0  0  0  0  0  0  0  0
    9.3882   -2.5657    0.0000 C   0  0  0  0  0  0  0  0  0  0  0  0
   10.0895   -1.1276    0.0000 N   0  0  0  0  0  0  0  0  0  0  0  0
   11.6740   -1.3503    0.0000 C   0  0  0  0  0  0  0  0  0  0  0  0
   12.8996   -0.3218    0.0000 C   0  0  0  0  0  0  0  0  0  0  0  0
   14.4031   -0.8690    0.0000 C   0  0  0  0  0  0  0  0  0  0  0  0
   14.6810   -2.4447    0.0000 C   0  0  0  0  0  0  0  0  0  0  0  0
   13.4553   -3.4732    0.0000 C   0  0  0  0  0  0  0  0  0  0  0  0
   11.9518   -2.9260    0.0000 C   0  0  0  0  0  0  0  0  0  0  0  0
   10.5391   -3.6771    0.0000 N   0  0  0  0  0  0  0  0  0  0  0  0
    0.0000    1.6000    0.0000 C   0  0  0  0  0  0  0  0  0  0  0  0
    1.3856    2.4000    0.0000 C   0  0  0  0  0  0  0  0  0  0  0  0
    2.7713    1.6000    0.0000 C   0  0  0  0  0  0  0  0  0  0  0  0
    1.3856    4.0000    0.0000 C   0  0  0  0  0  0  0  0  0  0  0  0
  1  2  1  0  0  0  0
  2  3  1  0  0  0  0
  2  7  2  0  0  0  0
  3  4  2  0  0  0  0
  4  5  1  0  0  0  0
  5  6  2  0  0  0  0
  5 33  1  0  0  0  0
  6  7  1  0  0  0  0
  6  8  1  0  0  0  0
  8  9  1  0  0  0  0
  9 10  1  0  0  0  0
 10 11  1  1  0  0  0
 10 17  1  0  0  0  0
 10 33  1  0  0  0  0
 11 12  1  0  0  0  0
 12 13  2  0  0  0  0
 12 14  1  0  0  0  0
 14 15  1  0  0  0  0
 15 16  1  0  0  0  0
 17 18  1  0  0  0  0
 18 19  1  0  0  0  0
 19 20  1  1  0  0  0
 19 21  1  0  0  0  0
 21 22  1  0  0  0  0
 22 23  1  0  0  0  0
 23 24  1  0  0  0  0
 24 25  2  0  0  0  0
 24 32  1  0  0  0  0
 25 26  1  0  0  0  0
 26 27  1  0  0  0  0
 26 31  2  0  0  0  0
 27 28  2  0  0  0  0
 28 29  1  0  0  0  0
 29 30  2  0  0  0  0
 30 31  1  0  0  0  0
 31 32  1  0  0  0  0
 33 34  1  1  0  0  0
 34 35  1  0  0  0  0
 34 36  1  0  0  0  0
M  END
> <Acceptable>
false

> <IC50>
1.44

$$$$

Generated by Molecular Materials Informatics

 25 27  0  0  0  0  0  0  0  0999 V2000
    1.3856   -2.4000    0.0000 Cl  0  0  0  0  0  0  0  0  0  0  0  0
   -4.1569   -2.4000    0.0000 Cl  0  0  0  0  0  0  0  0  0  0  0  0
    6.9282    2.4000    0.0000 Cl  0  0  0  0  0  0  0  0  0  0  0  0
    9.6995   -2.4000    0.0000 Cl  0  0  0  0  0  0  0  0  0  0  0  0
    2.7713    0.0000    0.0000 O   0  0  0  0  0  0  0  0  0  0  0  0
    2.7713    3.2000    0.0000 N   0  0  0  0  0  0  0  0  0  0  0  0
    5.3036    3.7383    0.0000 N   0  0  0  0  0  0  0  0  0  0  0  0
    1.3856    0.8000    0.0000 C   0  0  0  0  0  0  0  0  0  0  0  0
    1.3856    2.4000    0.0000 C   0  0  0  0  0  0  0  0  0  0  0  0
    0.0000    0.0000    0.0000 C   0  0  0  0  0  0  0  0  0  0  0  0
    4.1569    0.8000    0.0000 C   0  0  0  0  0  0  0  0  0  0  0  0
    0.0000   -1.6000    0.0000 C   0  0  0  0  0  0  0  0  0  0  0  0
   -1.3856    0.8000    0.0000 C   0  0  0  0  0  0  0  0  0  0  0  0
    5.5426    0.0000    0.0000 C   0  0  0  0  0  0  0  0  0  0  0  0
    2.9385    4.7912    0.0000 C   0  0  0  0  0  0  0  0  0  0  0  0
    4.2330    2.5492    0.0000 C   0  0  0  0  0  0  0  0  0  0  0  0
   -1.3856   -2.4000    0.0000 C   0  0  0  0  0  0  0  0  0  0  0  0
   -2.7713    0.0000    0.0000 C   0  0  0  0  0  0  0  0  0  0  0  0
   -2.7713   -1.6000    0.0000 C   0  0  0  0  0  0  0  0  0  0  0  0
    4.5036    5.1239    0.0000 C   0  0  0  0  0  0  0  0  0  0  0  0
    6.9282    0.8000    0.0000 C   0  0  0  0  0  0  0  0  0  0  0  0
    5.5426   -1.6000    0.0000 C   0  0  0  0  0  0  0  0  0  0  0  0
    8.3138    0.0000    0.0000 C   0  0  0  0  0  0  0  0  0  0  0  0
    6.9282   -2.4000    0.0000 C   0  0  0  0  0  0  0  0  0  0  0  0
    8.3138   -1.6000    0.0000 C   0  0  0  0  0  0  0  0  0  0  0  0
  1 12  1  0  0  0  0
  2 19  1  0  0  0  0
  3 21  1  0  0  0  0
  4 25  1  0  0  0  0
  5  8  1  0  0  0  0
  5 11  1  0  0  0  0
  6  9  1  0  0  0  0
  6 15  1  0  0  0  0
  6 16  1  0  0  0  0
  7 16  2  0  0  0  0
  7 20  1  0  0  0  0
  8  9  1  0  0  0  0
  8 10  1  6  0  0  0
 10 12  2  0  0  0  0
 10 13  1  0  0  0  0
 11 14  1  0  0  0  0
 12 17  1  0  0  0  0
 13 18  2  0  0  0  0
 14 21  2  0  0  0  0
 14 22  1  0  0  0  0
 15 20  2  0  0  0  0
 17 19  2  0  0  0  0
 18 19  1  0  0  0  0
 21 23  1  0  0  0  0
 22 24  2  0  0  0  0
 23 25  2  0  0  0  0
 24 25  1  0  0  0  0
M  END
> <Acceptable>
false

> <IC50>
2.09

$$$$

Generated by Molecular Materials Informatics

 23 26  0  0  0  0  0  0  0  0999 V2000
   -4.1569    2.4000    0.0000 Cl  0  0  0  0  0  0  0  0  0  0  0  0
   -2.7713    1.6000    0.0000 C   0  0  0  0  0  0  0  0  0  0  0  0
   -1.3856    2.4000    0.0000 C   0  0  0  0  0  0  0  0  0  0  0  0
    0.0000    1.6000    0.0000 C   0  0  0  0  0  0  0  0  0  0  0  0
    0.0000    0.0000    0.0000 C   0  0  0  0  0  0  0  0  0  0  0  0
    1.4894   -0.5845    0.0000 N   0  0  0  0  0  0  0  0  0  0  0  0
    1.9610   -2.1135    0.0000 C   0  0  0  0  0  0  0  0  0  0  0  0
    3.5608   -2.1374    0.0000 C   0  0  0  0  0  0  0  0  0  0  0  0
    4.0780   -0.6233    0.0000 N   0  0  0  0  0  0  0  0  0  0  0  0
    2.7977    0.3364    0.0000 C   0  0  0  0  0  0  0  0  0  0  0  0
    2.8217    1.9363    0.0000 C   0  0  0  0  0  0  0  0  0  0  0  0
    1.0597   -3.4354    0.0000 C   0  0  0  0  0  0  0  0  0  0  0  0
   -0.5358   -3.5550    0.0000 N   0  0  0  0  0  0  0  0  0  0  0  0
   -1.6241   -2.3821    0.0000 C   0  0  0  0  0  0  0  0  0  0  0  0
   -1.3856   -0.8000    0.0000 C   0  0  0  0  0  0  0  0  0  0  0  0
   -2.7713    0.0000    0.0000 C   0  0  0  0  0  0  0  0  0  0  0  0
   -3.1530   -2.8537    0.0000 C   0  0  0  0  0  0  0  0  0  0  0  0
   -3.5091   -4.4136    0.0000 C   0  0  0  0  0  0  0  0  0  0  0  0
   -5.0380   -4.8852    0.0000 C   0  0  0  0  0  0  0  0  0  0  0  0
   -6.2109   -3.7970    0.0000 C   0  0  0  0  0  0  0  0  0  0  0  0
   -5.8548   -2.2371    0.0000 C   0  0  0  0  0  0  0  0  0  0  0  0
   -4.3259   -1.7655    0.0000 C   0  0  0  0  0  0  0  0  0  0  0  0
   -3.9699   -0.2056    0.0000 F   0  0  0  0  0  0  0  0  0  0  0  0
  1  2  1  0  0  0  0
  2  3  1  0  0  0  0
  2 16  2  0  0  0  0
  3  4  2  0  0  0  0
  4  5  1  0  0  0  0
  5  6  1  0  0  0  0
  5 15  2  0  0  0  0
  6  7  1  0  0  0  0
  6 10  1  0  0  0  0
  7  8  2  0  0  0  0
  7 12  1  0  0  0  0
  8  9  1  0  0  0  0
  9 10  2  0  0  0  0
 10 11  1  0  0  0  0
 12 13  1  0  0  0  0
 13 14  2  0  0  0  0
 14 15  1  0  0  0  0
 14 17  1  0  0  0  0
 15 16  1  0  0  0  0
 17 18  1  0  0  0  0
 17 22  2  0  0  0  0
 18 19  2  0  0  0  0
 19 20  1  0  0  0  0
 20 21  2  0  0  0  0
 21 22  1  0  0  0  0
 22 23  1  0  0  0  0
M  END
> <Acceptable>
true

> <IC50>
N/A

$$$$

Generated by Molecular Materials Informatics

 18 18  0  0  0  0  0  0  0  0999 V2000
    5.5426   -1.6000    0.0000 O   0  0  0  0  0  0  0  0  0  0  0  0
    5.5426    0.0000    0.0000 C   0  0  0  0  0  0  0  0  0  0  0  0
    4.1569    0.8000    0.0000 N   0  0  0  0  0  0  0  0  0  0  0  0
    2.7713    0.0000    0.0000 C   0  0  0  0  0  0  0  0  0  0  0  0
    1.3856    0.8000    0.0000 C   0  0  0  0  0  0  0  0  0  0  0  0
    1.3856    2.4000    0.0000 O   0  0  0  0  0  0  0  0  0  0  0  0
    0.0000    0.0000    0.0000 C   0  0  0  0  0  0  0  0  0  0  0  0
    0.0000   -1.6000    0.0000 C   0  0  0  0  0  0  0  0  0  0  0  0
   -1.3856   -2.4000    0.0000 C   0  0  0  0  0  0  0  0  0  0  0  0
   -1.3856   -4.0000    0.0000 O   0  0  0  0  0  0  0  0  0  0  0  0
   -2.7713   -4.8000    0.0000 C   0  0  0  0  0  0  0  0  0  0  0  0
   -2.7713   -1.6000    0.0000 C   0  0  0  0  0  0  0  0  0  0  0  0
   -2.7713    0.0000    0.0000 C   0  0  0  0  0  0  0  0  0  0  0  0
   -1.3856    0.8000    0.0000 C   0  0  0  0  0  0  0  0  0  0  0  0
   -1.3856    2.4000    0.0000 O   0  0  0  0  0  0  0  0  0  0  0  0
   -2.7713    3.2000    0.0000 C   0  0  0  0  0  0  0  0  0  0  0  0
    6.9282    0.8000    0.0000 C   0  0  0  0  0  0  0  0  0  0  0  0
    8.3138    0.0000    0.0000 N   0  0  0  0  0  0  0  0  0  0  0  0
  1  2  2  0  0  0  0
  2  3  1  0  0  0  0
  2 17  1  0  0  0  0
  3  4  1  0  0  0  0
  4  5  1  0  0  0  0
  5  6  1  1  0  0  0
  5  7  1  0  0  0  0
  7  8  1  0  0  0  0
  7 14  2  0  0  0  0
  8  9  2  0  0  0  0
  9 10  1  0  0  0  0
  9 12  1  0  0  0  0
 10 11  1  0  0  0  0
 12 13  2  0  0  0  0
 13 14  1  0  0  0  0
 14 15  1  0  0  0  0
 15 16  1  0  0  0  0
 17 18  1  0  0  0  0
M  END
> <Acceptable>
true

> <IC50>
N/A

$$$$

Generated by Molecular Materials Informatics

 14 14  0  0  0  0  0  0  0  0999 V2000
   -4.8000   -2.7713    0.0000 O   0  0  0  0  0  0  0  0  0  0  0  0
   -3.2000   -2.7713    0.0000 C   0  0  0  0  0  0  0  0  0  0  0  0
   -2.4000   -1.3856    0.0000 C   0  0  0  0  0  0  0  0  0  0  0  0
   -0.8000   -1.3856    0.0000 N   0  0  0  0  0  0  0  0  0  0  0  0
    0.0000   -2.7713    0.0000 C   0  0  0  0  0  0  0  0  0  0  0  0
    1.6000   -2.7713    0.0000 C   0  0  0  0  0  0  0  0  0  0  0  0
    2.4000   -4.1569    0.0000 O   0  0  0  0  0  0  0  0  0  0  0  0
    2.4000   -1.3856    0.0000 C   0  0  0  0  0  0  0  0  0  0  0  0
    4.0000   -1.3856    0.0000 O   0  0  0  0  0  0  0  0  0  0  0  0
    1.6000    0.0000    0.0000 C   0  0  0  0  0  0  0  0  0  0  0  0
    2.4000    1.3856    0.0000 O   0  0  0  0  0  0  0  0  0  0  0  0
    0.0000    0.0000    0.0000 C   0  0  0  0  0  0  0  0  0  0  0  0
   -0.8000    1.3856    0.0000 C   0  0  0  0  0  0  0  0  0  0  0  0
    0.0000    2.7713    0.0000 O   0  0  0  0  0  0  0  0  0  0  0  0
  1  2  1  0  0  0  0
  2  3  1  0  0  0  0
  4  3  1  1  0  0  0
  4  5  1  0  0  0  0
  4 12  1  0  0  0  0
  5  6  1  0  0  0  0
  6  7  1  1  0  0  0
  6  8  1  0  0  0  0
  8  9  1  6  0  0  0
  8 10  1  0  0  0  0
 10 11  1  1  0  0  0
 10 12  1  0  0  0  0
 12 13  1  6  0  0  0
 13 14  1  0  0  0  0
M  END
> <Acceptable>
true

> <IC50>
N/A

$$$$

Generated by Molecular Materials Informatics

 20 23  0  0  0  0  0  0  0  0999 V2000
   -3.9633   -1.3883    0.0000 N   0  0  0  0  0  0  0  0  0  0  0  0
   -5.5232   -1.0323    0.0000 C   0  0  0  0  0  0  0  0  0  0  0  0
   -5.9948    0.4966    0.0000 C   0  0  0  0  0  0  0  0  0  0  0  0
   -4.9065    1.6695    0.0000 C   0  0  0  0  0  0  0  0  0  0  0  0
   -3.3466    1.3135    0.0000 C   0  0  0  0  0  0  0  0  0  0  0  0
   -2.4453    2.6354    0.0000 C   0  0  0  0  0  0  0  0  0  0  0  0
   -0.8498    2.7550    0.0000 C   0  0  0  0  0  0  0  0  0  0  0  0
   -0.3782    4.2839    0.0000 C   0  0  0  0  0  0  0  0  0  0  0  0
    1.1817    4.6400    0.0000 C   0  0  0  0  0  0  0  0  0  0  0  0
    2.2700    3.4671    0.0000 C   0  0  0  0  0  0  0  0  0  0  0  0
    1.7984    1.9382    0.0000 C   0  0  0  0  0  0  0  0  0  0  0  0
    0.2385    1.5821    0.0000 C   0  0  0  0  0  0  0  0  0  0  0  0
    0.0000    0.0000    0.0000 C   0  0  0  0  0  0  0  0  0  0  0  0
   -1.3856   -0.8000    0.0000 N   0  0  0  0  0  0  0  0  0  0  0  0
   -1.3856   -2.4000    0.0000 C   0  0  0  0  0  0  0  0  0  0  0  0
    0.0000   -3.2000    0.0000 C   0  0  0  0  0  0  0  0  0  0  0  0
    1.3856   -2.4000    0.0000 N   0  0  0  0  0  0  0  0  0  0  0  0
    2.7713   -3.2000    0.0000 C   0  0  0  0  0  0  0  0  0  0  0  0
    1.3856   -0.8000    0.0000 C   0  0  0  0  0  0  0  0  0  0  0  0
   -2.8750   -0.2155    0.0000 C   0  0  0  0  0  0  0  0  0  0  0  0
  1  2  1  0  0  0  0
  1 20  2  0  0  0  0
  2  3  2  0  0  0  0
  3  4  1  0  0  0  0
  4  5  2  0  0  0  0
  5  6  1  0  0  0  0
  5 20  1  0  0  0  0
  6  7  1  0  0  0  0
  7  8  1  0  0  0  0
  7 12  2  0  0  0  0
  8  9  2  0  0  0  0
  9 10  1  0  0  0  0
 10 11  2  0  0  0  0
 11 12  1  0  0  0  0
 12 13  1  0  0  0  0
 13 14  1  1  0  0  0
 13 19  1  0  0  0  0
 14 15  1  0  0  0  0
 14 20  1  0  0  0  0
 15 16  1  0  0  0  0
 16 17  1  0  0  0  0
 17 18  1  1  0  0  0
 17 19  1  0  0  0  0
M  END
> <Acceptable>
false

> <IC50>
N/A

$$$$

Generated by Molecular Materials Informatics

 32 36  0  0  0  0  0  0  0  0999 V2000
   -3.7880    6.2778    0.0000 F   0  0  0  0  0  0  0  0  0  0  0  0
   -2.7174    5.0888    0.0000 C   0  0  0  0  0  0  0  0  0  0  0  0
   -3.2118    3.5671    0.0000 C   0  0  0  0  0  0  0  0  0  0  0  0
   -2.1412    2.3781    0.0000 C   0  0  0  0  0  0  0  0  0  0  0  0
   -0.5762    2.7107    0.0000 C   0  0  0  0  0  0  0  0  0  0  0  0
   -0.0818    4.2324    0.0000 C   0  0  0  0  0  0  0  0  0  0  0  0
   -1.1524    5.4214    0.0000 C   0  0  0  0  0  0  0  0  0  0  0  0
    0.4944    1.5217    0.0000 C   0  0  0  0  0  0  0  0  0  0  0  0
    0.0000    0.0000    0.0000 N   0  0  0  0  0  0  0  0  0  0  0  0
   -1.5217   -0.4944    0.0000 C   0  0  0  0  0  0  0  0  0  0  0  0
   -2.9073    0.3056    0.0000 C   0  0  0  0  0  0  0  0  0  0  0  0
   -4.2930   -0.4944    0.0000 C   0  0  0  0  0  0  0  0  0  0  0  0
   -4.2930   -2.0944    0.0000 C   0  0  0  0  0  0  0  0  0  0  0  0
   -2.9073   -2.8944    0.0000 C   0  0  0  0  0  0  0  0  0  0  0  0
   -1.5217   -2.0944    0.0000 C   0  0  0  0  0  0  0  0  0  0  0  0
    0.0000   -2.5889    0.0000 N   0  0  0  0  0  0  0  0  0  0  0  0
    0.9405   -1.2944    0.0000 C   0  0  0  0  0  0  0  0  0  0  0  0
    2.5405   -1.2944    0.0000 N   0  0  0  0  0  0  0  0  0  0  0  0
    3.3405   -2.6801    0.0000 C   0  0  0  0  0  0  0  0  0  0  0  0
    4.9405   -2.6801    0.0000 C   0  0  0  0  0  0  0  0  0  0  0  0
    5.7405   -1.2944    0.0000 C   0  0  0  0  0  0  0  0  0  0  0  0
    4.9405    0.0912    0.0000 C   0  0  0  0  0  0  0  0  0  0  0  0
    3.3405    0.0912    0.0000 C   0  0  0  0  0  0  0  0  0  0  0  0
    7.3405   -1.2944    0.0000 C   0  0  0  0  0  0  0  0  0  0  0  0
    8.1405   -2.6801    0.0000 N   0  0  0  0  0  0  0  0  0  0  0  0
    9.7405   -2.6801    0.0000 C   0  0  0  0  0  0  0  0  0  0  0  0
   10.5405   -4.0657    0.0000 N   0  0  0  0  0  0  0  0  0  0  0  0
   12.1405   -4.0657    0.0000 C   0  0  0  0  0  0  0  0  0  0  0  0
   12.9405   -2.6801    0.0000 C   0  0  0  0  0  0  0  0  0  0  0  0
   12.1405   -1.2944    0.0000 C   0  0  0  0  0  0  0  0  0  0  0  0
   12.9405    0.0912    0.0000 O   0  0  0  0  0  0  0  0  0  0  0  0
   10.5405   -1.2944    0.0000 N   0  0  0  0  0  0  0  0  0  0  0  0
  1  2  1  0  0  0  0
  2  3  1  0  0  0  0
  2  7  2  0  0  0  0
  3  4  2  0  0  0  0
  4  5  1  0  0  0  0
  5  6  2  0  0  0  0
  5  8  1  0  0  0  0
  6  7  1  0  0  0  0
  8  9  1  0  0  0  0
  9 10  1  0  0  0  0
  9 17  1  0  0  0  0
 10 11  1  0  0  0  0
 10 15  2  0  0  0  0
 11 12  2  0  0  0  0
 12 13  1  0  0  0  0
 13 14  2  0  0  0  0
 14 15  1  0  0  0  0
 15 16  1  0  0  0  0
 16 17  2  0  0  0  0
 17 18  1  0  0  0  0
 18 19  1  0  0  0  0
 18 23  1  0  0  0  0
 19 20  1  0  0  0  0
 20 21  1  0  0  0  0
 21 22  1  0  0  0  0
 21 24  1  0  0  0  0
 22 23  1  0  0  0  0
 24 25  1  0  0  0  0
 25 26  1  0  0  0  0
 26 27  2  0  0  0  0
 26 32  1  0  0  0  0
 27 28  1  0  0  0  0
 28 29  2  0  0  0  0
 29 30  1  0  0  0  0
 30 31  2  0  0  0  0
 30 32  1  0  0  0  0
M  END
> <Acceptable>
false

> <IC50>
0.35

$$$$

Generated by Molecular Materials Informatics

 27 27  0  0  0  0  0  0  0  0999 V2000
    3.3856    2.3831    0.0000 O   0  0  0  0  0  0  0  0  0  0  0  0
    1.9239    1.7323    0.0000 C   0  0  0  0  0  0  0  0  0  0  0  0
    0.5383    2.5323    0.0000 C   0  0  0  0  0  0  0  0  0  0  0  0
   -0.6508    1.4617    0.0000 C   0  0  0  0  0  0  0  0  0  0  0  0
   -2.2158    1.7943    0.0000 O   0  0  0  0  0  0  0  0  0  0  0  0
    0.0000    0.0000    0.0000 C   0  0  0  0  0  0  0  0  0  0  0  0
   -0.8000   -1.3856    0.0000 C   0  0  0  0  0  0  0  0  0  0  0  0
   -2.4000   -1.3856    0.0000 C   0  0  0  0  0  0  0  0  0  0  0  0
   -3.2000   -2.7713    0.0000 C   0  0  0  0  0  0  0  0  0  0  0  0
   -4.8000   -2.7713    0.0000 C   0  0  0  0  0  0  0  0  0  0  0  0
   -6.0694   -1.7973    0.0000 O   0  0  0  0  0  0  0  0  0  0  0  0
   -5.0088   -1.1850    0.0000 C   0  0  0  0  0  0  0  0  0  0  0  0
   -5.6000   -4.1569    0.0000 C   0  0  0  0  0  0  0  0  0  0  0  0
   -7.2000   -4.1569    0.0000 C   0  0  0  0  0  0  0  0  0  0  0  0
   -8.0000   -5.5426    0.0000 C   0  0  0  0  0  0  0  0  0  0  0  0
   -9.6000   -5.5426    0.0000 C   0  0  0  0  0  0  0  0  0  0  0  0
    1.5912    0.1672    0.0000 C   0  0  0  0  0  0  0  0  0  0  0  0
    2.6618   -1.0218    0.0000 C   0  0  0  0  0  0  0  0  0  0  0  0
    4.2269   -0.6891    0.0000 C   0  0  0  0  0  0  0  0  0  0  0  0
    5.2975   -1.8782    0.0000 C   0  0  0  0  0  0  0  0  0  0  0  0
    6.8625   -1.5455    0.0000 C   0  0  0  0  0  0  0  0  0  0  0  0
    7.9331   -2.7345    0.0000 C   0  0  0  0  0  0  0  0  0  0  0  0
    9.4982   -2.4019    0.0000 C   0  0  0  0  0  0  0  0  0  0  0  0
   10.5688   -3.5909    0.0000 C   0  0  0  0  0  0  0  0  0  0  0  0
   10.0744   -5.1126    0.0000 O   0  0  0  0  0  0  0  0  0  0  0  0
   12.1338   -3.2582    0.0000 O   0  0  0  0  0  0  0  0  0  0  0  0
   13.2044   -4.4473    0.0000 C   0  0  0  0  0  0  0  0  0  0  0  0
  1  2  2  0  0  0  0
  2  3  1  0  0  0  0
  2 17  1  0  0  0  0
  3  4  1  0  0  0  0
  4  5  1  6  0  0  0
  4  6  1  0  0  0  0
  6  7  1  1  0  0  0
  6 17  1  0  0  0  0
  7  8  2  0  0  0  0
  8  9  1  0  0  0  0
  9 10  1  0  0  0  0
 10 11  1  0  0  0  0
 10 12  1  1  0  0  0
 10 13  1  0  0  0  0
 13 14  1  0  0  0  0
 14 15  1  0  0  0  0
 15 16  1  0  0  0  0
 17 18  1  6  0  0  0
 18 19  1  0  0  0  0
 19 20  1  0  0  0  0
 20 21  1  0  0  0  0
 21 22  1  0  0  0  0
 22 23  1  0  0  0  0
 23 24  1  0  0  0  0
 24 25  2  0  0  0  0
 24 26  1  0  0  0  0
 26 27  1  0  0  0  0
M  END
> <Acceptable>
true

> <IC50>
N/A

$$$$

Generated by Molecular Materials Informatics

 18 19  0  0  0  0  0  0  0  0999 V2000
   -5.5426   -3.2000    0.0000 Cl  0  0  0  0  0  0  0  0  0  0  0  0
   -4.1569   -2.4000    0.0000 C   0  0  0  0  0  0  0  0  0  0  0  0
   -2.7713   -3.2000    0.0000 C   0  0  0  0  0  0  0  0  0  0  0  0
   -1.3856   -2.4000    0.0000 C   0  0  0  0  0  0  0  0  0  0  0  0
   -1.3856   -0.8000    0.0000 C   0  0  0  0  0  0  0  0  0  0  0  0
   -2.7713    0.0000    0.0000 C   0  0  0  0  0  0  0  0  0  0  0  0
   -4.1569   -0.8000    0.0000 C   0  0  0  0  0  0  0  0  0  0  0  0
    0.0000    0.0000    0.0000 C   0  0  0  0  0  0  0  0  0  0  0  0
    1.3856   -0.8000    0.0000 C   0  0  0  0  0  0  0  0  0  0  0  0
    1.3856   -2.4000    0.0000 C   0  0  0  0  0  0  0  0  0  0  0  0
    2.7713   -3.2000    0.0000 C   0  0  0  0  0  0  0  0  0  0  0  0
    4.1569   -2.4000    0.0000 C   0  0  0  0  0  0  0  0  0  0  0  0
    4.1569   -0.8000    0.0000 C   0  0  0  0  0  0  0  0  0  0  0  0
    2.7713    0.0000    0.0000 C   0  0  0  0  0  0  0  0  0  0  0  0
    2.7713    1.6000    0.0000 Cl  0  0  0  0  0  0  0  0  0  0  0  0
    0.0000    1.6000    0.0000 C   0  0  0  0  0  0  0  0  0  0  0  0
    1.3856    2.4000    0.0000 Cl  0  0  0  0  0  0  0  0  0  0  0  0
   -1.3856    2.4000    0.0000 Cl  0  0  0  0  0  0  0  0  0  0  0  0
  1  2  1  0  0  0  0
  2  3  1  0  0  0  0
  2  7  2  0  0  0  0
  3  4  2  0  0  0  0
  4  5  1  0  0  0  0
  5  6  2  0  0  0  0
  5  8  1  0  0  0  0
  6  7  1  0  0  0  0
  8  9  1  1  0  0  0
  8 16  1  0  0  0  0
  9 10  1  0  0  0  0
  9 14  2  0  0  0  0
 10 11  2  0  0  0  0
 11 12  1  0  0  0  0
 12 13  2  0  0  0  0
 13 14  1  0  0  0  0
 14 15  1  0  0  0  0
 16 17  1  0  0  0  0
 16 18  1  0  0  0  0
M  END
> <Acceptable>
true

> <IC50>
N/A

$$$$

Generated by Molecular Materials Informatics

 32 34  0  0  0  0  0  0  0  0999 V2000
   -4.0000   -1.3856    0.0000 O   0  0  0  0  0  0  0  0  0  0  0  0
   -2.4000   -1.3856    0.0000 C   0  0  0  0  0  0  0  0  0  0  0  0
   -1.6000   -2.7713    0.0000 C   0  0  0  0  0  0  0  0  0  0  0  0
   -2.4000   -4.1569    0.0000 C   0  0  0  0  0  0  0  0  0  0  0  0
   -4.0000   -4.1569    0.0000 O   0  0  0  0  0  0  0  0  0  0  0  0
   -1.6000   -5.5426    0.0000 C   0  0  0  0  0  0  0  0  0  0  0  0
    0.0000   -5.5426    0.0000 C   0  0  0  0  0  0  0  0  0  0  0  0
    0.8000   -4.1569    0.0000 C   0  0  0  0  0  0  0  0  0  0  0  0
    2.4000   -4.1569    0.0000 O   0  0  0  0  0  0  0  0  0  0  0  0
    0.0000   -2.7713    0.0000 C   0  0  0  0  0  0  0  0  0  0  0  0
    0.8000   -1.3856    0.0000 C   0  0  0  0  0  0  0  0  0  0  0  0
    2.4000   -1.3856    0.0000 O   0  0  0  0  0  0  0  0  0  0  0  0
    0.0000    0.0000    0.0000 C   0  0  0  0  0  0  0  0  0  0  0  0
    0.8000    1.3856    0.0000 C   0  0  0  0  0  0  0  0  0  0  0  0
    2.4000    1.3856    0.0000 N   0  0  0  0  0  0  0  0  0  0  0  0
    3.2000    2.7713    0.0000 C   0  0  0  0  0  0  0  0  0  0  0  0
    4.8000    2.7713    0.0000 C   0  0  0  0  0  0  0  0  0  0  0  0
    5.6000    4.1569    0.0000 N   0  0  0  0  0  0  0  0  0  0  0  0
    7.2000    4.1569    0.0000 C   0  0  0  0  0  0  0  0  0  0  0  0
    8.0000    5.5426    0.0000 C   0  0  0  0  0  0  0  0  0  0  0  0
    9.6000    5.5426    0.0000 O   0  0  0  0  0  0  0  0  0  0  0  0
    0.0000    2.7713    0.0000 C   0  0  0  0  0  0  0  0  0  0  0  0
   -1.6000    2.7713    0.0000 C   0  0  0  0  0  0  0  0  0  0  0  0
   -2.4000    1.3856    0.0000 C   0  0  0  0  0  0  0  0  0  0  0  0
   -4.0000    1.3856    0.0000 N   0  0  0  0  0  0  0  0  0  0  0  0
   -4.8000    2.7713    0.0000 C   0  0  0  0  0  0  0  0  0  0  0  0
   -6.4000    2.7713    0.0000 C   0  0  0  0  0  0  0  0  0  0  0  0
   -7.2000    4.1569    0.0000 N   0  0  0  0  0  0  0  0  0  0  0  0
   -8.8000    4.1569    0.0000 C   0  0  0  0  0  0  0  0  0  0  0  0
   -9.6000    5.5426    0.0000 C   0  0  0  0  0  0  0  0  0  0  0  0
  -11.2000    5.5426    0.0000 O   0  0  0  0  0  0  0  0  0  0  0  0
   -1.6000    0.0000    0.0000 C   0  0  0  0  0  0  0  0  0  0  0  0
  1  2  2  0  0  0  0
  2  3  1  0  0  0  0
  2 32  1  0  0  0  0
  3  4  1  0  0  0  0
  3 10  2  0  0  0  0
  4  5  1  0  0  0  0
  4  6  2  0  0  0  0
  6  7  1  0  0  0  0
  7  8  2  0  0  0  0
  8  9  1  0  0  0  0
  8 10  1  0  0  0  0
 10 11  1  0  0  0  0
 11 12  2  0  0  0  0
 11 13  1  0  0  0  0
 13 14  1  0  0  0  0
 13 32  2  0  0  0  0
 14 15  1  0  0  0  0
 14 22  2  0  0  0  0
 15 16  1  0  0  0  0
 16 17  1  0  0  0  0
 17 18  1  0  0  0  0
 18 19  1  0  0  0  0
 19 20  1  0  0  0  0
 20 21  1  0  0  0  0
 22 23  1  0  0  0  0
 23 24  2  0  0  0  0
 24 25  1  0  0  0  0
 24 32  1  0  0  0  0
 25 26  1  0  0  0  0
 26 27  1  0  0  0  0
 27 28  1  0  0  0  0
 28 29  1  0  0  0  0
 29 30  1  0  0  0  0
 30 31  1  0  0  0  0
M  END
> <Acceptable>
false

> <IC50>
N/A

$$$$

Generated by Molecular Materials Informatics

 33 37  0  0  0  0  0  0  0  0999 V2000
    8.0000    2.7713    0.0000 S   0  0  0  0  0  0  0  0  0  0  0  0
    6.6144    3.5713    0.0000 O   0  0  0  0  0  0  0  0  0  0  0  0
    9.3856    1.9713    0.0000 O   0  0  0  0  0  0  0  0  0  0  0  0
    7.2000    1.3856    0.0000 N   0  0  0  0  0  0  0  0  0  0  0  0
    5.6000    1.3856    0.0000 C   0  0  0  0  0  0  0  0  0  0  0  0
    4.8000    2.7713    0.0000 C   0  0  0  0  0  0  0  0  0  0  0  0
    3.2000    2.7713    0.0000 C   0  0  0  0  0  0  0  0  0  0  0  0
    2.4000    1.3856    0.0000 C   0  0  0  0  0  0  0  0  0  0  0  0
    0.8000    1.3856    0.0000 O   0  0  0  0  0  0  0  0  0  0  0  0
    0.0000    0.0000    0.0000 C   0  0  0  0  0  0  0  0  0  0  0  0
   -0.8000    1.3856    0.0000 C   0  0  0  0  0  0  0  0  0  0  0  0
   -2.4000    1.3856    0.0000 C   0  0  0  0  0  0  0  0  0  0  0  0
   -3.2000    0.0000    0.0000 N   0  0  0  0  0  0  0  0  0  0  0  0
   -2.4000   -1.3856    0.0000 C   0  0  0  0  0  0  0  0  0  0  0  0
   -0.8000   -1.3856    0.0000 C   0  0  0  0  0  0  0  0  0  0  0  0
   -4.8000    0.0000    0.0000 C   0  0  0  0  0  0  0  0  0  0  0  0
   -5.6000    1.3856    0.0000 C   0  0  0  0  0  0  0  0  0  0  0  0
   -7.2000    1.3856    0.0000 C   0  0  0  0  0  0  0  0  0  0  0  0
   -8.0000    0.0000    0.0000 C   0  0  0  0  0  0  0  0  0  0  0  0
   -9.6000    0.0000    0.0000 C   0  0  0  0  0  0  0  0  0  0  0  0
  -10.4000   -1.3856    0.0000 C   0  0  0  0  0  0  0  0  0  0  0  0
  -12.0000   -1.3856    0.0000 C   0  0  0  0  0  0  0  0  0  0  0  0
  -13.6000   -1.3856    0.0000 N   0  0  0  0  0  0  0  0  0  0  0  0
   -9.6000   -2.7713    0.0000 C   0  0  0  0  0  0  0  0  0  0  0  0
   -8.0000   -2.7713    0.0000 C   0  0  0  0  0  0  0  0  0  0  0  0
   -7.2000   -1.3856    0.0000 C   0  0  0  0  0  0  0  0  0  0  0  0
   -5.6000   -1.3856    0.0000 C   0  0  0  0  0  0  0  0  0  0  0  0
    0.8000   -1.3856    0.0000 C   0  0  0  0  0  0  0  0  0  0  0  0
    2.4000   -1.3856    0.0000 C   0  0  0  0  0  0  0  0  0  0  0  0
    3.2000   -2.7713    0.0000 O   0  0  0  0  0  0  0  0  0  0  0  0
    3.2000    0.0000    0.0000 C   0  0  0  0  0  0  0  0  0  0  0  0
    4.8000    0.0000    0.0000 C   0  0  0  0  0  0  0  0  0  0  0  0
    8.8000    4.1569    0.0000 C   0  0  0  0  0  0  0  0  0  0  0  0
  1  2  2  0  0  0  0
  1  3  2  0  0  0  0
  1  4  1  0  0  0  0
  1 33  1  0  0  0  0
  4  5  1  0  0  0  0
  5  6  1  0  0  0  0
  5 32  2  0  0  0  0
  6  7  2  0  0  0  0
  7  8  1  0  0  0  0
  8  9  1  0  0  0  0
  8 31  2  0  0  0  0
  9 10  1  0  0  0  0
 10 11  1  0  0  0  0
 10 15  1  0  0  0  0
 10 28  1  6  0  0  0
 11 12  1  0  0  0  0
 12 13  1  0  0  0  0
 13 14  1  6  0  0  0
 13 16  1  0  0  0  0
 14 15  1  0  0  0  0
 16 17  1  1  0  0  0
 16 27  1  0  0  0  0
 17 18  1  0  0  0  0
 18 19  1  0  0  0  0
 19 20  1  0  0  0  0
 19 26  2  0  0  0  0
 20 21  2  0  0  0  0
 21 22  1  0  0  0  0
 21 24  1  0  0  0  0
 22 23  3  0  0  0  0
 24 25  2  0  0  0  0
 25 26  1  0  0  0  0
 26 27  1  0  0  0  0
 28 29  1  0  0  0  0
 29 30  1  1  0  0  0
 29 31  1  0  0  0  0
 31 32  1  0  0  0  0
M  END
> <Acceptable>
false

> <IC50>
0.021

$$$$

Generated by Molecular Materials Informatics

 18 19  0  0  0  0  0  0  0  0999 V2000
   -4.8000    0.0000    0.0000 Cl  0  0  0  0  0  0  0  0  0  0  0  0
    9.6000   -2.7713    0.0000 O   0  0  0  0  0  0  0  0  0  0  0  0
    2.4000    1.3856    0.0000 O   0  0  0  0  0  0  0  0  0  0  0  0
    6.4000   -2.7713    0.0000 N   0  0  0  0  0  0  0  0  0  0  0  0
    2.4000   -1.3856    0.0000 N   0  0  0  0  0  0  0  0  0  0  0  0
    7.2000   -4.1569    0.0000 C   0  0  0  0  0  0  0  0  0  0  0  0
    7.2000   -1.3856    0.0000 C   0  0  0  0  0  0  0  0  0  0  0  0
    4.8000   -2.7713    0.0000 C   0  0  0  0  0  0  0  0  0  0  0  0
    8.8000   -4.1569    0.0000 C   0  0  0  0  0  0  0  0  0  0  0  0
    8.8000   -1.3856    0.0000 C   0  0  0  0  0  0  0  0  0  0  0  0
    4.0000   -1.3856    0.0000 C   0  0  0  0  0  0  0  0  0  0  0  0
    1.6000    0.0000    0.0000 C   0  0  0  0  0  0  0  0  0  0  0  0
    0.0000    0.0000    0.0000 C   0  0  0  0  0  0  0  0  0  0  0  0
   -0.8000   -1.3856    0.0000 C   0  0  0  0  0  0  0  0  0  0  0  0
   -0.8000    1.3856    0.0000 C   0  0  0  0  0  0  0  0  0  0  0  0
   -2.4000   -1.3856    0.0000 C   0  0  0  0  0  0  0  0  0  0  0  0
   -2.4000    1.3856    0.0000 C   0  0  0  0  0  0  0  0  0  0  0  0
   -3.2000    0.0000    0.0000 C   0  0  0  0  0  0  0  0  0  0  0  0
  1 18  1  0  0  0  0
  2  9  1  0  0  0  0
  2 10  1  0  0  0  0
  3 12  2  0  0  0  0
  4  6  1  0  0  0  0
  4  7  1  0  0  0  0
  4  8  1  0  0  0  0
  5 11  1  0  0  0  0
  5 12  1  0  0  0  0
  6  9  1  0  0  0  0
  7 10  1  0  0  0  0
  8 11  1  0  0  0  0
 12 13  1  0  0  0  0
 13 14  2  0  0  0  0
 13 15  1  0  0  0  0
 14 16  1  0  0  0  0
 15 17  2  0  0  0  0
 16 18  2  0  0  0  0
 17 18  1  0  0  0  0
M  END
> <Acceptable>
true

> <IC50>
79.43

$$$$

Generated by Molecular Materials Informatics

 19 20  0  0  0  0  0  0  0  0999 V2000
    0.0000    1.6000    0.0000 S   0  0  0  0  0  0  0  0  0  0  0  0
    1.3856    2.4000    0.0000 O   0  0  0  0  0  0  0  0  0  0  0  0
   -1.3856    2.4000    0.0000 C   0  0  0  0  0  0  0  0  0  0  0  0
   -1.3856    4.0000    0.0000 C   0  0  0  0  0  0  0  0  0  0  0  0
    0.0000    4.8000    0.0000 O   0  0  0  0  0  0  0  0  0  0  0  0
   -2.7713    4.8000    0.0000 N   0  0  0  0  0  0  0  0  0  0  0  0
    0.0000    0.0000    0.0000 C   0  0  0  0  0  0  0  0  0  0  0  0
   -1.3856   -0.8000    0.0000 C   0  0  0  0  0  0  0  0  0  0  0  0
   -1.3856   -2.4000    0.0000 C   0  0  0  0  0  0  0  0  0  0  0  0
   -2.7713   -3.2000    0.0000 C   0  0  0  0  0  0  0  0  0  0  0  0
   -4.1569   -2.4000    0.0000 C   0  0  0  0  0  0  0  0  0  0  0  0
   -4.1569   -0.8000    0.0000 C   0  0  0  0  0  0  0  0  0  0  0  0
   -2.7713    0.0000    0.0000 C   0  0  0  0  0  0  0  0  0  0  0  0
    1.3856   -0.8000    0.0000 C   0  0  0  0  0  0  0  0  0  0  0  0
    2.7713    0.0000    0.0000 C   0  0  0  0  0  0  0  0  0  0  0  0
    4.1569   -0.8000    0.0000 C   0  0  0  0  0  0  0  0  0  0  0  0
    4.1569   -2.4000    0.0000 C   0  0  0  0  0  0  0  0  0  0  0  0
    2.7713   -3.2000    0.0000 C   0  0  0  0  0  0  0  0  0  0  0  0
    1.3856   -2.4000    0.0000 C   0  0  0  0  0  0  0  0  0  0  0  0
  1  2  1  1  0  0  0
  1  3  1  0  0  0  0
  1  7  1  0  0  0  0
  3  4  1  0  0  0  0
  4  5  2  0  0  0  0
  4  6  1  0  0  0  0
  7  8  1  0  0  0  0
  7 14  1  0  0  0  0
  8  9  1  0  0  0  0
  8 13  2  0  0  0  0
  9 10  2  0  0  0  0
 10 11  1  0  0  0  0
 11 12  2  0  0  0  0
 12 13  1  0  0  0  0
 14 15  1  0  0  0  0
 14 19  2  0  0  0  0
 15 16  2  0  0  0  0
 16 17  1  0  0  0  0
 17 18  2  0  0  0  0
 18 19  1  0  0  0  0
M  END
> <Acceptable>
true

> <IC50>
N/A

$$$$

Generated by Molecular Materials Informatics

 20 22  0  0  0  0  0  0  0  0999 V2000
    1.3856    2.4000    0.0000 O   0  0  0  0  0  0  0  0  0  0  0  0
    1.3856    0.8000    0.0000 C   0  0  0  0  0  0  0  0  0  0  0  0
    0.0000    0.0000    0.0000 C   0  0  0  0  0  0  0  0  0  0  0  0
    0.0000   -1.6000    0.0000 C   0  0  0  0  0  0  0  0  0  0  0  0
   -1.5217   -2.0944    0.0000 N   0  0  0  0  0  0  0  0  0  0  0  0
   -2.4621   -0.8000    0.0000 C   0  0  0  0  0  0  0  0  0  0  0  0
   -4.0621   -0.8000    0.0000 C   0  0  0  0  0  0  0  0  0  0  0  0
   -1.5217    0.4944    0.0000 C   0  0  0  0  0  0  0  0  0  0  0  0
   -2.0161    2.0161    0.0000 C   0  0  0  0  0  0  0  0  0  0  0  0
   -3.5812    2.3488    0.0000 C   0  0  0  0  0  0  0  0  0  0  0  0
    1.3856   -2.4000    0.0000 C   0  0  0  0  0  0  0  0  0  0  0  0
    2.7713   -1.6000    0.0000 C   0  0  0  0  0  0  0  0  0  0  0  0
    2.7713    0.0000    0.0000 C   0  0  0  0  0  0  0  0  0  0  0  0
    4.1569    0.8000    0.0000 C   0  0  0  0  0  0  0  0  0  0  0  0
    5.5426    0.0000    0.0000 N   0  0  0  0  0  0  0  0  0  0  0  0
    5.5426   -1.6000    0.0000 C   0  0  0  0  0  0  0  0  0  0  0  0
    6.9282   -2.4000    0.0000 C   0  0  0  0  0  0  0  0  0  0  0  0
    8.3138   -1.6000    0.0000 O   0  0  0  0  0  0  0  0  0  0  0  0
    8.3138    0.0000    0.0000 C   0  0  0  0  0  0  0  0  0  0  0  0
    6.9282    0.8000    0.0000 C   0  0  0  0  0  0  0  0  0  0  0  0
  1  2  2  0  0  0  0
  2  3  1  0  0  0  0
  2 13  1  0  0  0  0
  3  4  2  0  0  0  0
  3  8  1  0  0  0  0
  4  5  1  0  0  0  0
  4 11  1  0  0  0  0
  5  6  2  0  0  0  0
  6  7  1  0  0  0  0
  6  8  1  0  0  0  0
  8  9  1  6  0  0  0
  9 10  1  0  0  0  0
 11 12  1  0  0  0  0
 12 13  1  0  0  0  0
 13 14  1  1  0  0  0
 14 15  1  0  0  0  0
 15 16  1  0  0  0  0
 15 20  1  0  0  0  0
 16 17  1  0  0  0  0
 17 18  1  0  0  0  0
 18 19  1  0  0  0  0
 19 20  1  0  0  0  0
M  END
> <Acceptable>
true

> <IC50>
N/A

$$$$

Generated by Molecular Materials Informatics

 41 45  0  0  0  0  0  0  0  0999 V2000
  -16.8000   -1.3856    0.0000 Cl  0  0  0  0  0  0  0  0  0  0  0  0
  -15.2000   -1.3856    0.0000 C   0  0  0  0  0  0  0  0  0  0  0  0
  -14.4000    0.0000    0.0000 C   0  0  0  0  0  0  0  0  0  0  0  0
  -12.8000    0.0000    0.0000 C   0  0  0  0  0  0  0  0  0  0  0  0
  -12.0000   -1.3856    0.0000 C   0  0  0  0  0  0  0  0  0  0  0  0
  -10.4000   -1.3856    0.0000 C   0  0  0  0  0  0  0  0  0  0  0  0
   -9.6000   -2.7713    0.0000 C   0  0  0  0  0  0  0  0  0  0  0  0
  -10.4000   -4.1569    0.0000 C   0  0  0  0  0  0  0  0  0  0  0  0
  -12.0000   -4.1569    0.0000 N   0  0  0  0  0  0  0  0  0  0  0  0
  -12.8000   -2.7713    0.0000 C   0  0  0  0  0  0  0  0  0  0  0  0
  -14.4000   -2.7713    0.0000 C   0  0  0  0  0  0  0  0  0  0  0  0
   -9.6000   -5.5426    0.0000 C   0  0  0  0  0  0  0  0  0  0  0  0
   -8.0000   -5.5426    0.0000 C   0  0  0  0  0  0  0  0  0  0  0  0
   -7.2000   -4.1569    0.0000 C   0  0  0  0  0  0  0  0  0  0  0  0
   -8.0000   -2.7713    0.0000 C   0  0  0  0  0  0  0  0  0  0  0  0
   -7.2000   -1.3856    0.0000 C   0  0  0  0  0  0  0  0  0  0  0  0
   -5.6000   -1.3856    0.0000 C   0  0  0  0  0  0  0  0  0  0  0  0
   -4.8000   -2.7713    0.0000 C   0  0  0  0  0  0  0  0  0  0  0  0
   -5.6000   -4.1569    0.0000 C   0  0  0  0  0  0  0  0  0  0  0  0
   -3.2000   -2.7713    0.0000 C   0  0  0  0  0  0  0  0  0  0  0  0
   -2.4000   -1.3856    0.0000 S   0  0  0  0  0  0  0  0  0  0  0  0
   -0.8000   -1.3856    0.0000 C   0  0  0  0  0  0  0  0  0  0  0  0
    0.0000    0.0000    0.0000 C   0  0  0  0  0  0  0  0  0  0  0  0
    1.2257    1.0285    0.0000 C   0  0  0  0  0  0  0  0  0  0  0  0
    1.5035   -0.5472    0.0000 C   0  0  0  0  0  0  0  0  0  0  0  0
   -1.2257    1.0285    0.0000 C   0  0  0  0  0  0  0  0  0  0  0  0
   -0.9478    2.6042    0.0000 C   0  0  0  0  0  0  0  0  0  0  0  0
    0.5557    3.1514    0.0000 O   0  0  0  0  0  0  0  0  0  0  0  0
   -2.1735    3.6326    0.0000 O   0  0  0  0  0  0  0  0  0  0  0  0
   -2.4000   -4.1569    0.0000 C   0  0  0  0  0  0  0  0  0  0  0  0
   -0.8000   -4.1569    0.0000 C   0  0  0  0  0  0  0  0  0  0  0  0
    0.0000   -5.5426    0.0000 C   0  0  0  0  0  0  0  0  0  0  0  0
    1.6000   -5.5426    0.0000 C   0  0  0  0  0  0  0  0  0  0  0  0
    2.4000   -6.9282    0.0000 C   0  0  0  0  0  0  0  0  0  0  0  0
    1.6000   -8.3138    0.0000 C   0  0  0  0  0  0  0  0  0  0  0  0
    0.0000   -8.3138    0.0000 C   0  0  0  0  0  0  0  0  0  0  0  0
   -0.8000   -6.9282    0.0000 C   0  0  0  0  0  0  0  0  0  0  0  0
   -2.4000   -6.9282    0.0000 C   0  0  0  0  0  0  0  0  0  0  0  0
   -1.6000   -8.3138    0.0000 O   0  0  0  0  0  0  0  0  0  0  0  0
   -4.0000   -6.9282    0.0000 C   0  0  0  0  0  0  0  0  0  0  0  0
   -3.2000   -8.3138    0.0000 C   0  0  0  0  0  0  0  0  0  0  0  0
  1  2  1  0  0  0  0
  2  3  1  0  0  0  0
  2 11  2  0  0  0  0
  3  4  2  0  0  0  0
  4  5  1  0  0  0  0
  5  6  1  0  0  0  0
  5 10  2  0  0  0  0
  6  7  2  0  0  0  0
  7  8  1  0  0  0  0
  8  9  2  0  0  0  0
  8 12  1  0  0  0  0
  9 10  1  0  0  0  0
 10 11  1  0  0  0  0
 12 13  2  0  0  0  0
 13 14  1  0  0  0  0
 14 15  1  0  0  0  0
 14 19  2  0  0  0  0
 15 16  2  0  0  0  0
 16 17  1  0  0  0  0
 17 18  2  0  0  0  0
 18 19  1  0  0  0  0
 18 20  1  0  0  0  0
 20 21  1  6  0  0  0
 20 30  1  0  0  0  0
 21 22  1  0  0  0  0
 22 23  1  0  0  0  0
 23 24  1  0  0  0  0
 23 25  1  0  0  0  0
 23 26  1  0  0  0  0
 24 25  1  0  0  0  0
 26 27  1  0  0  0  0
 27 28  2  0  0  0  0
 27 29  1  0  0  0  0
 30 31  1  0  0  0  0
 31 32  1  0  0  0  0
 32 33  1  0  0  0  0
 32 37  2  0  0  0  0
 33 34  2  0  0  0  0
 34 35  1  0  0  0  0
 35 36  2  0  0  0  0
 36 37  1  0  0  0  0
 37 38  1  0  0  0  0
 38 39  1  0  0  0  0
 38 40  1  0  0  0  0
 38 41  1  0  0  0  0
M  END
> <Acceptable>
true

> <IC50>
N/A

$$$$

Generated by Molecular Materials Informatics

 22 24  0  0  0  0  0  0  0  0999 V2000
    2.4000    1.3856    0.0000 O   0  0  0  0  0  0  0  0  0  0  0  0
    3.2000   -2.7713    0.0000 O   0  0  0  0  0  0  0  0  0  0  0  0
   -2.4000   -1.3856    0.0000 O   0  0  0  0  0  0  0  0  0  0  0  0
    0.0000   -2.7713    0.0000 O   0  0  0  0  0  0  0  0  0  0  0  0
    4.8000    2.7713    0.0000 O   0  0  0  0  0  0  0  0  0  0  0  0
   -2.4000    4.1569    0.0000 O   0  0  0  0  0  0  0  0  0  0  0  0
    9.6000    0.0000    0.0000 O   0  0  0  0  0  0  0  0  0  0  0  0
    0.0000    0.0000    0.0000 C   0  0  0  0  0  0  0  0  0  0  0  0
    3.2000    0.0000    0.0000 C   0  0  0  0  0  0  0  0  0  0  0  0
    0.8000    1.3856    0.0000 C   0  0  0  0  0  0  0  0  0  0  0  0
    4.8000    0.0000    0.0000 C   0  0  0  0  0  0  0  0  0  0  0  0
    2.4000   -1.3856    0.0000 C   0  0  0  0  0  0  0  0  0  0  0  0
    0.8000   -1.3856    0.0000 C   0  0  0  0  0  0  0  0  0  0  0  0
   -1.6000    0.0000    0.0000 C   0  0  0  0  0  0  0  0  0  0  0  0
    0.0000    2.7713    0.0000 C   0  0  0  0  0  0  0  0  0  0  0  0
    5.6000    1.3856    0.0000 C   0  0  0  0  0  0  0  0  0  0  0  0
   -1.6000    2.7713    0.0000 C   0  0  0  0  0  0  0  0  0  0  0  0
   -2.4000    1.3856    0.0000 C   0  0  0  0  0  0  0  0  0  0  0  0
    5.6000   -1.3856    0.0000 C   0  0  0  0  0  0  0  0  0  0  0  0
    7.2000    1.3856    0.0000 C   0  0  0  0  0  0  0  0  0  0  0  0
    7.2000   -1.3856    0.0000 C   0  0  0  0  0  0  0  0  0  0  0  0
    8.0000    0.0000    0.0000 C   0  0  0  0  0  0  0  0  0  0  0  0
  1  9  1  0  0  0  0
  1 10  1  0  0  0  0
  2 12  1  0  0  0  0
  3 14  1  0  0  0  0
  4 13  2  0  0  0  0
  5 16  1  0  0  0  0
  6 17  1  0  0  0  0
  7 22  1  0  0  0  0
  8 10  2  0  0  0  0
  8 13  1  0  0  0  0
  8 14  1  0  0  0  0
  9 11  1  0  0  0  0
  9 12  2  0  0  0  0
 10 15  1  0  0  0  0
 11 16  2  0  0  0  0
 11 19  1  0  0  0  0
 12 13  1  0  0  0  0
 14 18  2  0  0  0  0
 15 17  2  0  0  0  0
 16 20  1  0  0  0  0
 17 18  1  0  0  0  0
 19 21  2  0  0  0  0
 20 22  2  0  0  0  0
 21 22  1  0  0  0  0
M  END
> <Acceptable>
true

> <IC50>
111.4

$$$$

Generated by Molecular Materials Informatics

 21 25  0  0  0  0  0  0  0  0999 V2000
   -4.8000    2.7713    0.0000 O   0  0  0  0  0  0  0  0  0  0  0  0
   -4.0000    1.3856    0.0000 C   0  0  0  0  0  0  0  0  0  0  0  0
   -4.8000    0.0000    0.0000 C   0  0  0  0  0  0  0  0  0  0  0  0
   -4.0000   -1.3856    0.0000 C   0  0  0  0  0  0  0  0  0  0  0  0
   -2.4000   -1.3856    0.0000 C   0  0  0  0  0  0  0  0  0  0  0  0
   -1.6000   -2.7713    0.0000 C   0  0  0  0  0  0  0  0  0  0  0  0
    0.0000   -2.7713    0.0000 C   0  0  0  0  0  0  0  0  0  0  0  0
   -1.1620   -2.4716    0.0000 N   0  0  0  0  0  0  0  0  0  0  0  0
   -2.1827   -3.7037    0.0000 C   0  0  0  0  0  0  0  0  0  0  0  0
   -1.6725   -1.3856    0.0000 C   0  0  0  0  0  0  0  0  0  0  0  0
   -1.1620   -0.2997    0.0000 C   0  0  0  0  0  0  0  0  0  0  0  0
    0.0000    0.0000    0.0000 C   0  0  0  0  0  0  0  0  0  0  0  0
   -1.6000    0.0000    0.0000 C   0  0  0  0  0  0  0  0  0  0  0  0
   -2.4000    1.3856    0.0000 C   0  0  0  0  0  0  0  0  0  0  0  0
   -0.8000    3.1745    0.0000 O   0  0  0  0  0  0  0  0  0  0  0  0
    0.8000    1.3856    0.0000 C   0  0  0  0  0  0  0  0  0  0  0  0
    2.4000    1.3856    0.0000 C   0  0  0  0  0  0  0  0  0  0  0  0
    3.2000    2.7713    0.0000 O   0  0  0  0  0  0  0  0  0  0  0  0
    3.2000    0.0000    0.0000 C   0  0  0  0  0  0  0  0  0  0  0  0
    2.4000   -1.3856    0.0000 C   0  0  0  0  0  0  0  0  0  0  0  0
    0.8000   -1.3856    0.0000 C   0  0  0  0  0  0  0  0  0  0  0  0
  1  2  1  0  0  0  0
  2  3  1  0  0  0  0
  2 14  2  0  0  0  0
  3  4  2  0  0  0  0
  4  5  1  0  0  0  0
  5  6  1  0  0  0  0
  5 13  2  0  0  0  0
  7  6  1  1  0  0  0
  7  8  1  0  0  0  0
  7 21  1  0  0  0  0
  8  9  1  6  0  0  0
  8 10  1  0  0  0  0
 10 11  1  0  0  0  0
 12 11  1  6  0  0  0
 12 13  1  0  0  0  0
 12 16  1  0  0  0  0
 12 21  1  0  0  0  0
 13 14  1  0  0  0  0
 14 15  1  0  0  0  0
 16 15  1  1  0  0  0
 16 17  1  0  0  0  0
 17 18  1  1  0  0  0
 17 19  1  0  0  0  0
 19 20  2  0  0  0  0
 21 20  1  1  0  0  0
M  END
> <Acceptable>
true

> <IC50>
1000

$$$$

Generated by Molecular Materials Informatics

 29 31  0  0  0  0  0  0  0  0999 V2000
   -1.3856    4.0000    0.0000 Cl  0  0  0  0  0  0  0  0  0  0  0  0
   -1.3856    2.4000    0.0000 C   0  0  0  0  0  0  0  0  0  0  0  0
    0.0000    1.6000    0.0000 C   0  0  0  0  0  0  0  0  0  0  0  0
    0.0000    0.0000    0.0000 C   0  0  0  0  0  0  0  0  0  0  0  0
   -1.3856   -0.8000    0.0000 C   0  0  0  0  0  0  0  0  0  0  0  0
   -1.3856   -2.4000    0.0000 O   0  0  0  0  0  0  0  0  0  0  0  0
   -2.7713   -3.2000    0.0000 C   0  0  0  0  0  0  0  0  0  0  0  0
   -2.7713   -4.8000    0.0000 C   0  0  0  0  0  0  0  0  0  0  0  0
   -2.7713    0.0000    0.0000 C   0  0  0  0  0  0  0  0  0  0  0  0
   -2.7713    1.6000    0.0000 C   0  0  0  0  0  0  0  0  0  0  0  0
   -4.1569    2.4000    0.0000 N   0  0  0  0  0  0  0  0  0  0  0  0
    1.3856   -0.8000    0.0000 C   0  0  0  0  0  0  0  0  0  0  0  0
    1.3856   -2.4000    0.0000 O   0  0  0  0  0  0  0  0  0  0  0  0
    2.7713    0.0000    0.0000 N   0  0  0  0  0  0  0  0  0  0  0  0
    4.1569   -0.8000    0.0000 C   0  0  0  0  0  0  0  0  0  0  0  0
    5.5426    0.0000    0.0000 C   0  0  0  0  0  0  0  0  0  0  0  0
    5.5426    1.6000    0.0000 O   0  0  0  0  0  0  0  0  0  0  0  0
    6.9282    2.4000    0.0000 C   0  0  0  0  0  0  0  0  0  0  0  0
    8.3138    1.6000    0.0000 C   0  0  0  0  0  0  0  0  0  0  0  0
    8.3138    0.0000    0.0000 N   0  0  0  0  0  0  0  0  0  0  0  0
    6.9282   -0.8000    0.0000 C   0  0  0  0  0  0  0  0  0  0  0  0
    9.6995   -0.8000    0.0000 C   0  0  0  0  0  0  0  0  0  0  0  0
   11.0851    0.0000    0.0000 C   0  0  0  0  0  0  0  0  0  0  0  0
   11.0851    1.6000    0.0000 C   0  0  0  0  0  0  0  0  0  0  0  0
   12.4708    2.4000    0.0000 C   0  0  0  0  0  0  0  0  0  0  0  0
   13.8564    1.6000    0.0000 C   0  0  0  0  0  0  0  0  0  0  0  0
   15.2420    2.4000    0.0000 F   0  0  0  0  0  0  0  0  0  0  0  0
   13.8564    0.0000    0.0000 C   0  0  0  0  0  0  0  0  0  0  0  0
   12.4708   -0.8000    0.0000 C   0  0  0  0  0  0  0  0  0  0  0  0
  1  2  1  0  0  0  0
  2  3  1  0  0  0  0
  2 10  2  0  0  0  0
  3  4  2  0  0  0  0
  4  5  1  0  0  0  0
  4 12  1  0  0  0  0
  5  6  1  0  0  0  0
  5  9  2  0  0  0  0
  6  7  1  0  0  0  0
  7  8  1  0  0  0  0
  9 10  1  0  0  0  0
 10 11  1  0  0  0  0
 12 13  2  0  0  0  0
 12 14  1  0  0  0  0
 14 15  1  0  0  0  0
 16 15  1  6  0  0  0
 16 17  1  0  0  0  0
 16 21  1  0  0  0  0
 17 18  1  0  0  0  0
 18 19  1  0  0  0  0
 19 20  1  0  0  0  0
 20 21  1  0  0  0  0
 20 22  1  1  0  0  0
 22 23  1  0  0  0  0
 23 24  1  0  0  0  0
 23 29  2  0  0  0  0
 24 25  2  0  0  0  0
 25 26  1  0  0  0  0
 26 27  1  0  0  0  0
 26 28  2  0  0  0  0
 28 29  1  0  0  0  0
M  END
> <Acceptable>
false

> <IC50>
7.76

$$$$

Generated by Molecular Materials Informatics

 29 33  0  0  0  0  0  0  0  0999 V2000
    4.1569    2.4000    0.0000 F   0  0  0  0  0  0  0  0  0  0  0  0
    2.7713    1.6000    0.0000 C   0  0  0  0  0  0  0  0  0  0  0  0
    1.3856    2.4000    0.0000 C   0  0  0  0  0  0  0  0  0  0  0  0
    0.0000    1.6000    0.0000 C   0  0  0  0  0  0  0  0  0  0  0  0
    0.0000    0.0000    0.0000 C   0  0  0  0  0  0  0  0  0  0  0  0
   -1.3856   -0.8000    0.0000 N   0  3  0  0  0  0  0  0  0  0  0  0
   -2.7713    0.0000    0.0000 C   0  0  0  0  0  0  0  0  0  0  0  0
   -2.7713    1.6000    0.0000 C   0  0  0  0  0  0  0  0  0  0  0  0
   -1.3856    2.4000    0.0000 C   0  0  0  0  0  0  0  0  0  0  0  0
   -1.3856    4.0000    0.0000 O   0  0  0  0  0  0  0  0  0  0  0  0
   -4.1569    2.4000    0.0000 C   0  0  0  0  0  0  0  0  0  0  0  0
   -4.1569    4.0000    0.0000 O   0  0  0  0  0  0  0  0  0  0  0  0
   -5.5426    1.6000    0.0000 O   0  0  0  0  0  0  0  0  0  0  0  0
   -1.3856   -2.4000    0.0000 C   0  0  0  0  0  0  0  0  0  0  0  0
   -2.1856   -3.7856    0.0000 C   0  0  0  0  0  0  0  0  0  0  0  0
   -0.5856   -3.7856    0.0000 C   0  0  0  0  0  0  0  0  0  0  0  0
    1.3856   -0.8000    0.0000 C   0  0  0  0  0  0  0  0  0  0  0  0
    1.3856   -2.4000    0.0000 O   0  0  0  0  0  0  0  0  0  0  0  0
    2.7713   -3.2000    0.0000 C   0  0  0  0  0  0  0  0  0  0  0  0
    2.7713    0.0000    0.0000 C   0  0  0  0  0  0  0  0  0  0  0  0
    4.1569   -0.8000    0.0000 N   0  0  0  0  0  0  0  0  0  0  0  0
    4.3242   -2.3912    0.0000 C   0  0  0  0  0  0  0  0  0  0  0  0
    5.8892   -2.7239    0.0000 C   0  0  0  0  0  0  0  0  0  0  0  0
    6.6892   -4.1095    0.0000 N   0  0  0  0  0  0  0  0  0  0  0  0
    8.2892   -4.1095    0.0000 C   0  0  0  0  0  0  0  0  0  0  0  0
    9.0892   -2.7239    0.0000 C   0  0  0  0  0  0  0  0  0  0  0  0
    8.2892   -1.3383    0.0000 C   0  0  0  0  0  0  0  0  0  0  0  0
    6.6892   -1.3383    0.0000 C   0  0  0  0  0  0  0  0  0  0  0  0
    5.6186   -0.1492    0.0000 C   0  0  0  0  0  0  0  0  0  0  0  0
  1  2  1  0  0  0  0
  2  3  1  0  0  0  0
  2 20  2  0  0  0  0
  3  4  2  0  0  0  0
  4  5  1  0  0  0  0
  4  9  1  0  0  0  0
  5  6  1  0  0  0  0
  5 17  2  0  0  0  0
  6  7  2  0  0  0  0
  6 14  1  0  0  0  0
  7  8  1  0  0  0  0
  8  9  1  0  0  0  0
  8 11  1  1  0  0  0
  9 10  2  0  0  0  0
 11 12  2  0  0  0  0
 11 13  1  0  0  0  0
 14 15  1  0  0  0  0
 14 16  1  0  0  0  0
 15 16  1  0  0  0  0
 17 18  1  0  0  0  0
 17 20  1  0  0  0  0
 18 19  1  0  0  0  0
 20 21  1  0  0  0  0
 21 22  1  0  0  0  0
 21 29  1  0  0  0  0
 22 23  1  0  0  0  0
 23 24  1  1  0  0  0
 23 28  1  0  0  0  0
 24 25  1  0  0  0  0
 25 26  1  0  0  0  0
 26 27  1  0  0  0  0
 28 27  1  1  0  0  0
 28 29  1  0  0  0  0
M  CHG  1   6   1
M  END
> <Acceptable>
true

> <IC50>
128.82

$$$$

Generated by Molecular Materials Informatics

 50 52  0  0  0  0  0  0  0  0999 V2000
   -6.6248   -2.0831    0.0000 O   0  0  0  0  0  0  0  0  0  0  0  0
   -5.0649   -2.4391    0.0000 C   0  0  0  0  0  0  0  0  0  0  0  0
   -5.0649   -4.0391    0.0000 O   0  0  0  0  0  0  0  0  0  0  0  0
   -4.3707   -5.4807    0.0000 C   0  0  0  0  0  0  0  0  0  0  0  0
   -5.6216   -6.4783    0.0000 C   0  0  0  0  0  0  0  0  0  0  0  0
   -7.1110   -5.8937    0.0000 C   0  0  0  0  0  0  0  0  0  0  0  0
   -3.1198   -6.4783    0.0000 C   0  0  0  0  0  0  0  0  0  0  0  0
   -4.5054   -7.2783    0.0000 O   0  0  0  0  0  0  0  0  0  0  0  0
   -2.8813   -8.0604    0.0000 C   0  0  0  0  0  0  0  0  0  0  0  0
   -1.5599   -6.8343    0.0000 C   0  0  0  0  0  0  0  0  0  0  0  0
   -1.5599   -8.4343    0.0000 O   0  0  0  0  0  0  0  0  0  0  0  0
    0.0000   -6.4783    0.0000 C   0  0  0  0  0  0  0  0  0  0  0  0
    0.6942   -7.9198    0.0000 C   0  0  0  0  0  0  0  0  0  0  0  0
    1.2509   -5.4807    0.0000 C   0  0  0  0  0  0  0  0  0  0  0  0
    2.5019   -6.4783    0.0000 O   0  0  0  0  0  0  0  0  0  0  0  0
    1.9451   -4.0391    0.0000 C   0  0  0  0  0  0  0  0  0  0  0  0
    3.5050   -4.3952    0.0000 C   0  0  0  0  0  0  0  0  0  0  0  0
    1.9451   -2.4391    0.0000 C   0  0  0  0  0  0  0  0  0  0  0  0
    1.2509   -0.9976    0.0000 C   0  0  0  0  0  0  0  0  0  0  0  0
    2.8465   -0.8780    0.0000 O   0  0  0  0  0  0  0  0  0  0  0  0
    1.7225    0.5313    0.0000 C   0  0  0  0  0  0  0  0  0  0  0  0
    0.0000    0.0000    0.0000 C   0  0  0  0  0  0  0  0  0  0  0  0
    0.6942    1.4416    0.0000 O   0  0  0  0  0  0  0  0  0  0  0  0
    2.2897    1.5611    0.0000 C   0  0  0  0  0  0  0  0  0  0  0  0
    3.1911    0.2391    0.0000 O   0  0  0  0  0  0  0  0  0  0  0  0
    4.7866    0.3587    0.0000 C   0  0  0  0  0  0  0  0  0  0  0  0
    5.6879   -0.9633    0.0000 C   0  0  0  0  0  0  0  0  0  0  0  0
    5.4808    1.8003    0.0000 C   0  0  0  0  0  0  0  0  0  0  0  0
    4.5795    3.1222    0.0000 C   0  0  0  0  0  0  0  0  0  0  0  0
    5.2737    4.5638    0.0000 N   0  0  0  0  0  0  0  0  0  0  0  0
    6.8692    4.6834    0.0000 C   0  0  0  0  0  0  0  0  0  0  0  0
    2.9840    3.0027    0.0000 C   0  0  0  0  0  0  0  0  0  0  0  0
    2.0826    4.3247    0.0000 O   0  0  0  0  0  0  0  0  0  0  0  0
   -1.5599    0.3560    0.0000 C   0  0  0  0  0  0  0  0  0  0  0  0
   -1.5599    1.9560    0.0000 C   0  0  0  0  0  0  0  0  0  0  0  0
   -3.1198    0.0000    0.0000 C   0  0  0  0  0  0  0  0  0  0  0  0
   -3.8140    1.4415    0.0000 O   0  0  0  0  0  0  0  0  0  0  0  0
   -5.2724    2.0996    0.0000 C   0  0  0  0  0  0  0  0  0  0  0  0
   -6.5715    1.1656    0.0000 O   0  0  0  0  0  0  0  0  0  0  0  0
   -8.0299    1.8237    0.0000 C   0  0  0  0  0  0  0  0  0  0  0  0
   -9.3290    0.8897    0.0000 C   0  0  0  0  0  0  0  0  0  0  0  0
   -8.1892    3.4157    0.0000 C   0  0  0  0  0  0  0  0  0  0  0  0
   -9.6476    4.0738    0.0000 O   0  0  0  0  0  0  0  0  0  0  0  0
   -6.8901    4.3497    0.0000 C   0  0  0  0  0  0  0  0  0  0  0  0
   -8.0355    5.4669    0.0000 O   0  0  0  0  0  0  0  0  0  0  0  0
   -7.6407    7.0174    0.0000 C   0  0  0  0  0  0  0  0  0  0  0  0
   -5.9888    5.6717    0.0000 C   0  0  0  0  0  0  0  0  0  0  0  0
   -5.4317    3.6917    0.0000 C   0  0  0  0  0  0  0  0  0  0  0  0
   -4.3707   -0.9976    0.0000 C   0  0  0  0  0  0  0  0  0  0  0  0
   -5.6216    0.0000    0.0000 C   0  0  0  0  0  0  0  0  0  0  0  0
  1  2  2  0  0  0  0
  2  3  1  0  0  0  0
  2 49  1  0  0  0  0
  3  4  1  0  0  0  0
  4  5  1  1  0  0  0
  4  7  1  0  0  0  0
  5  6  1  0  0  0  0
  7  8  1  0  0  0  0
  7  9  1  1  0  0  0
  7 10  1  0  0  0  0
 10 11  1  1  0  0  0
 10 12  1  0  0  0  0
 12 13  1  6  0  0  0
 12 14  1  0  0  0  0
 14 15  2  0  0  0  0
 14 16  1  0  0  0  0
 16 17  1  1  0  0  0
 16 18  1  0  0  0  0
 18 19  1  0  0  0  0
 19 20  1  0  0  0  0
 19 21  1  1  0  0  0
 19 22  1  0  0  0  0
 22 23  1  1  0  0  0
 22 34  1  0  0  0  0
 24 23  1  1  0  0  0
 24 25  1  0  0  0  0
 24 32  1  0  0  0  0
 25 26  1  0  0  0  0
 26 27  1  1  0  0  0
 26 28  1  0  0  0  0
 28 29  1  0  0  0  0
 29 30  1  1  0  0  0
 29 32  1  0  0  0  0
 30 31  1  0  0  0  0
 32 33  1  6  0  0  0
 34 35  1  6  0  0  0
 34 36  1  0  0  0  0
 36 37  1  1  0  0  0
 36 49  1  0  0  0  0
 38 37  1  6  0  0  0
 38 39  1  0  0  0  0
 38 48  1  0  0  0  0
 39 40  1  0  0  0  0
 40 41  1  1  0  0  0
 40 42  1  0  0  0  0
 42 43  1  6  0  0  0
 42 44  1  0  0  0  0
 44 45  1  0  0  0  0
 44 47  1  1  0  0  0
 44 48  1  0  0  0  0
 45 46  1  0  0  0  0
 49 50  1  6  0  0  0
M  END
> <Acceptable>
true

> <IC50>
147

$$$$

Generated by Molecular Materials Informatics

 21 24  0  0  0  0  0  0  0  0999 V2000
    1.8712   -1.7891    0.0000 C   0  0  0  0  0  0  0  0  0  0  0  0
    1.5855   -0.2148    0.0000 C   0  0  0  0  0  0  0  0  0  0  0  0
    0.0000    0.0000    0.0000 C   0  0  0  0  0  0  0  0  0  0  0  0
   -0.6942   -1.4415    0.0000 C   0  0  0  0  0  0  0  0  0  0  0  0
    0.4623   -2.5472    0.0000 S   0  0  0  0  0  0  0  0  0  0  0  0
   -2.2541   -1.7976    0.0000 N   0  0  0  0  0  0  0  0  0  0  0  0
   -2.2541    1.7976    0.0000 N   0  0  0  0  0  0  0  0  0  0  0  0
   -0.6942    1.4416    0.0000 C   0  0  0  0  0  0  0  0  0  0  0  0
   -3.5050    0.8000    0.0000 C   0  0  0  0  0  0  0  0  0  0  0  0
   -3.5050   -0.8000    0.0000 C   0  0  0  0  0  0  0  0  0  0  0  0
   -4.8907   -1.6000    0.0000 C   0  0  0  0  0  0  0  0  0  0  0  0
   -6.2763   -0.8000    0.0000 C   0  0  0  0  0  0  0  0  0  0  0  0
   -6.2763    0.8000    0.0000 C   0  0  0  0  0  0  0  0  0  0  0  0
   -4.8907    1.6000    0.0000 C   0  0  0  0  0  0  0  0  0  0  0  0
    0.3034    2.6925    0.0000 N   0  0  0  0  0  0  0  0  0  0  0  0
    1.8855    2.4540    0.0000 C   0  0  0  0  0  0  0  0  0  0  0  0
    2.8831    3.7049    0.0000 C   0  0  0  0  0  0  0  0  0  0  0  0
    2.2985    5.1943    0.0000 N   0  0  0  0  0  0  0  0  0  0  0  0
    0.7164    5.4328    0.0000 C   0  0  0  0  0  0  0  0  0  0  0  0
   -0.2812    4.1819    0.0000 C   0  0  0  0  0  0  0  0  0  0  0  0
    3.3128   -2.4833    0.0000 C   0  0  0  0  0  0  0  0  0  0  0  0
  1  2  2  0  0  0  0
  1  5  1  0  0  0  0
  1 21  1  0  0  0  0
  2  3  1  0  0  0  0
  3  4  2  0  0  0  0
  3  8  1  0  0  0  0
  4  5  1  0  0  0  0
  4  6  1  0  0  0  0
  6 10  1  0  0  0  0
  7  8  2  0  0  0  0
  7  9  1  0  0  0  0
  8 15  1  0  0  0  0
  9 10  1  0  0  0  0
  9 14  2  0  0  0  0
 10 11  2  0  0  0  0
 11 12  1  0  0  0  0
 12 13  2  0  0  0  0
 13 14  1  0  0  0  0
 15 16  1  0  0  0  0
 15 20  1  0  0  0  0
 16 17  1  0  0  0  0
 17 18  1  0  0  0  0
 18 19  1  0  0  0  0
 19 20  1  0  0  0  0
M  END
> <Acceptable>
false

> <IC50>
14

$$$$

Generated by Molecular Materials Informatics

 22 23  0  0  0  0  0  0  0  0999 V2000
   -2.4000    1.3856    0.0000 O   0  0  0  0  0  0  0  0  0  0  0  0
   -4.0000    4.1569    0.0000 O   0  0  0  0  0  0  0  0  0  0  0  0
    0.0000    2.7713    0.0000 O   0  0  0  0  0  0  0  0  0  0  0  0
   -7.2000    4.1569    0.0000 N   0  0  0  0  0  0  0  0  0  0  0  0
    2.4000    1.3856    0.0000 C   0  0  0  0  0  0  0  0  0  0  0  0
    3.2000    2.7713    0.0000 C   0  0  0  0  0  0  0  0  0  0  0  0
    0.0000    0.0000    0.0000 C   0  0  0  0  0  0  0  0  0  0  0  0
   -4.8000    2.7713    0.0000 C   0  0  0  0  0  0  0  0  0  0  0  0
    0.8000    1.3856    0.0000 C   0  0  0  0  0  0  0  0  0  0  0  0
   -4.0000    1.3856    0.0000 C   0  0  0  0  0  0  0  0  0  0  0  0
   -1.6000    0.0000    0.0000 C   0  0  0  0  0  0  0  0  0  0  0  0
    4.8000    2.7713    0.0000 C   0  0  0  0  0  0  0  0  0  0  0  0
   -6.4000    2.7713    0.0000 C   0  0  0  0  0  0  0  0  0  0  0  0
    0.8000   -1.3856    0.0000 C   0  0  0  0  0  0  0  0  0  0  0  0
   -2.4000   -1.3856    0.0000 C   0  0  0  0  0  0  0  0  0  0  0  0
    5.6000    1.3856    0.0000 C   0  0  0  0  0  0  0  0  0  0  0  0
    5.6000    4.1569    0.0000 C   0  0  0  0  0  0  0  0  0  0  0  0
    0.0000   -2.7713    0.0000 C   0  0  0  0  0  0  0  0  0  0  0  0
   -1.6000   -2.7713    0.0000 C   0  0  0  0  0  0  0  0  0  0  0  0
    7.2000    1.3856    0.0000 C   0  0  0  0  0  0  0  0  0  0  0  0
    7.2000    4.1569    0.0000 C   0  0  0  0  0  0  0  0  0  0  0  0
    8.0000    2.7713    0.0000 C   0  0  0  0  0  0  0  0  0  0  0  0
  1 10  1  0  0  0  0
  1 11  1  0  0  0  0
  8  2  1  1  0  0  0
  3  9  2  0  0  0  0
  4 13  1  0  0  0  0
  5  6  1  0  0  0  0
  5  9  1  0  0  0  0
  6 12  1  0  0  0  0
  7  9  1  0  0  0  0
  7 11  2  0  0  0  0
  7 14  1  0  0  0  0
  8 10  1  0  0  0  0
  8 13  1  0  0  0  0
 11 15  1  0  0  0  0
 12 16  2  0  0  0  0
 12 17  1  0  0  0  0
 14 18  2  0  0  0  0
 15 19  2  0  0  0  0
 16 20  1  0  0  0  0
 17 21  2  0  0  0  0
 18 19  1  0  0  0  0
 20 22  2  0  0  0  0
 21 22  1  0  0  0  0
M  END
> <Acceptable>
false

> <IC50>
239.9

$$$$

Generated by Molecular Materials Informatics

 29 31  0  0  0  0  0  0  0  0999 V2000
    2.7713   -4.8000    0.0000 Cl  0  0  0  0  0  0  0  0  0  0  0  0
   -2.7713   -4.8000    0.0000 Cl  0  0  0  0  0  0  0  0  0  0  0  0
   -4.1569    2.4000    0.0000 F   0  0  0  0  0  0  0  0  0  0  0  0
   -2.7713    4.8000    0.0000 F   0  0  0  0  0  0  0  0  0  0  0  0
   -4.1569    4.0000    0.0000 F   0  0  0  0  0  0  0  0  0  0  0  0
    4.1569    2.4000    0.0000 O   0  0  0  0  0  0  0  0  0  0  0  0
    8.3138    0.0000    0.0000 N   0  0  0  0  0  0  0  0  0  0  0  0
    4.1569    0.8000    0.0000 C   0  0  0  0  0  0  0  0  0  0  0  0
    2.7713    0.0000    0.0000 C   0  0  0  0  0  0  0  0  0  0  0  0
    5.5426    0.0000    0.0000 C   0  0  0  0  0  0  0  0  0  0  0  0
    1.3856    0.8000    0.0000 C   0  0  0  0  0  0  0  0  0  0  0  0
    0.0000    0.0000    0.0000 C   0  0  0  0  0  0  0  0  0  0  0  0
    6.9282    0.8000    0.0000 C   0  0  0  0  0  0  0  0  0  0  0  0
    0.0000   -1.6000    0.0000 C   0  0  0  0  0  0  0  0  0  0  0  0
    2.7713   -1.6000    0.0000 C   0  0  0  0  0  0  0  0  0  0  0  0
    1.3856   -2.4000    0.0000 C   0  0  0  0  0  0  0  0  0  0  0  0
    1.3856    2.4000    0.0000 C   0  0  0  0  0  0  0  0  0  0  0  0
   -1.3856    0.8000    0.0000 C   0  0  0  0  0  0  0  0  0  0  0  0
    9.6995    0.8000    0.0000 C   0  0  0  0  0  0  0  0  0  0  0  0
   -1.3856    2.4000    0.0000 C   0  0  0  0  0  0  0  0  0  0  0  0
   11.0851    0.0000    0.0000 C   0  0  0  0  0  0  0  0  0  0  0  0
   -1.3856   -2.4000    0.0000 C   0  0  0  0  0  0  0  0  0  0  0  0
    0.0000    3.2000    0.0000 C   0  0  0  0  0  0  0  0  0  0  0  0
    1.3856   -4.0000    0.0000 C   0  0  0  0  0  0  0  0  0  0  0  0
   12.4708    0.8000    0.0000 C   0  0  0  0  0  0  0  0  0  0  0  0
   -1.3856   -4.0000    0.0000 C   0  0  0  0  0  0  0  0  0  0  0  0
    0.0000   -4.8000    0.0000 C   0  0  0  0  0  0  0  0  0  0  0  0
   -2.7713    3.2000    0.0000 C   0  0  0  0  0  0  0  0  0  0  0  0
   13.8564    0.0000    0.0000 C   0  0  0  0  0  0  0  0  0  0  0  0
  1 24  1  0  0  0  0
  2 26  1  0  0  0  0
  3 28  1  0  0  0  0
  4 28  1  0  0  0  0
  5 28  1  0  0  0  0
  8  6  1  1  0  0  0
  7 13  1  0  0  0  0
  7 19  1  0  0  0  0
  8  9  1  0  0  0  0
  8 10  1  0  0  0  0
  9 11  1  0  0  0  0
  9 15  2  0  0  0  0
 10 13  1  0  0  0  0
 11 12  2  0  0  0  0
 11 17  1  0  0  0  0
 12 14  1  0  0  0  0
 12 18  1  0  0  0  0
 14 16  2  0  0  0  0
 14 22  1  0  0  0  0
 15 16  1  0  0  0  0
 16 24  1  0  0  0  0
 17 23  2  0  0  0  0
 18 20  2  0  0  0  0
 19 21  1  0  0  0  0
 20 23  1  0  0  0  0
 20 28  1  0  0  0  0
 21 25  1  0  0  0  0
 22 26  2  0  0  0  0
 24 27  2  0  0  0  0
 25 29  1  0  0  0  0
 26 27  1  0  0  0  0
M  END
> <Acceptable>
false

> <IC50>
0.0717

$$$$

Generated by Molecular Materials Informatics

 22 25  0  0  0  0  0  0  0  0999 V2000
   -0.4130    2.7403    0.0000 C   0  0  0  0  0  0  0  0  0  0  0  0
   -0.9976    1.2509    0.0000 N   0  0  0  0  0  0  0  0  0  0  0  0
   -2.5797    1.0125    0.0000 C   0  0  0  0  0  0  0  0  0  0  0  0
   -3.5773    2.2634    0.0000 C   0  0  0  0  0  0  0  0  0  0  0  0
   -2.9928    3.7528    0.0000 N   0  0  0  0  0  0  0  0  0  0  0  0
   -1.4106    3.9913    0.0000 C   0  0  0  0  0  0  0  0  0  0  0  0
    0.0000    0.0000    0.0000 C   0  0  0  0  0  0  0  0  0  0  0  0
    1.5599    0.3560    0.0000 N   0  0  0  0  0  0  0  0  0  0  0  0
    2.8108   -0.6415    0.0000 C   0  0  0  0  0  0  0  0  0  0  0  0
    1.5599   -3.2391    0.0000 N   0  0  0  0  0  0  0  0  0  0  0  0
    2.8108   -2.2415    0.0000 C   0  0  0  0  0  0  0  0  0  0  0  0
    4.1965    0.1585    0.0000 C   0  0  0  0  0  0  0  0  0  0  0  0
    5.5821   -0.6415    0.0000 C   0  0  0  0  0  0  0  0  0  0  0  0
    5.5821   -2.2415    0.0000 C   0  0  0  0  0  0  0  0  0  0  0  0
    4.1965   -3.0415    0.0000 C   0  0  0  0  0  0  0  0  0  0  0  0
    0.0000   -2.8831    0.0000 C   0  0  0  0  0  0  0  0  0  0  0  0
   -0.6942   -1.4416    0.0000 C   0  0  0  0  0  0  0  0  0  0  0  0
   -2.2897   -1.3220    0.0000 C   0  0  0  0  0  0  0  0  0  0  0  0
   -3.1911   -2.6440    0.0000 C   0  0  0  0  0  0  0  0  0  0  0  0
   -2.4968   -4.0855    0.0000 C   0  0  0  0  0  0  0  0  0  0  0  0
   -0.9013   -4.2051    0.0000 C   0  0  0  0  0  0  0  0  0  0  0  0
    6.9677    0.1585    0.0000 Cl  0  0  0  0  0  0  0  0  0  0  0  0
  1  2  1  0  0  0  0
  1  6  1  0  0  0  0
  2  3  1  0  0  0  0
  2  7  1  0  0  0  0
  3  4  1  0  0  0  0
  4  5  1  0  0  0  0
  5  6  1  0  0  0  0
  7  8  2  0  0  0  0
  7 17  1  0  0  0  0
  8  9  1  0  0  0  0
  9 11  1  0  0  0  0
  9 12  2  0  0  0  0
 10 11  1  0  0  0  0
 10 16  1  0  0  0  0
 11 15  2  0  0  0  0
 12 13  1  0  0  0  0
 13 14  2  0  0  0  0
 13 22  1  0  0  0  0
 14 15  1  0  0  0  0
 16 17  1  0  0  0  0
 16 21  2  0  0  0  0
 17 18  2  0  0  0  0
 18 19  1  0  0  0  0
 19 20  2  0  0  0  0
 20 21  1  0  0  0  0
M  END
> <Acceptable>
false

> <IC50>
4

$$$$

Generated by Molecular Materials Informatics

 50 52  0  0  0  0  0  0  0  0999 V2000
   -6.6248   -2.0831    0.0000 O   0  0  0  0  0  0  0  0  0  0  0  0
   -5.0649   -2.4391    0.0000 C   0  0  0  0  0  0  0  0  0  0  0  0
   -5.0649   -4.0391    0.0000 O   0  0  0  0  0  0  0  0  0  0  0  0
   -4.3707   -5.4807    0.0000 C   0  0  0  0  0  0  0  0  0  0  0  0
   -5.6216   -6.4783    0.0000 C   0  0  0  0  0  0  0  0  0  0  0  0
   -7.1110   -5.8937    0.0000 C   0  0  0  0  0  0  0  0  0  0  0  0
   -3.1198   -6.4783    0.0000 C   0  0  0  0  0  0  0  0  0  0  0  0
   -4.5054   -7.2783    0.0000 O   0  0  0  0  0  0  0  0  0  0  0  0
   -2.8813   -8.0604    0.0000 C   0  0  0  0  0  0  0  0  0  0  0  0
   -1.5599   -6.8343    0.0000 C   0  0  0  0  0  0  0  0  0  0  0  0
   -1.5599   -8.4343    0.0000 O   0  0  0  0  0  0  0  0  0  0  0  0
    0.0000   -6.4783    0.0000 C   0  0  0  0  0  0  0  0  0  0  0  0
    0.6942   -7.9198    0.0000 C   0  0  0  0  0  0  0  0  0  0  0  0
    1.2509   -5.4807    0.0000 C   0  0  0  0  0  0  0  0  0  0  0  0
    2.5019   -6.4783    0.0000 O   0  0  0  0  0  0  0  0  0  0  0  0
    1.9451   -4.0391    0.0000 C   0  0  0  0  0  0  0  0  0  0  0  0
    3.5050   -4.3952    0.0000 C   0  0  0  0  0  0  0  0  0  0  0  0
    1.9451   -2.4391    0.0000 C   0  0  0  0  0  0  0  0  0  0  0  0
    1.2509   -0.9976    0.0000 C   0  0  0  0  0  0  0  0  0  0  0  0
    2.8465   -0.8780    0.0000 O   0  0  0  0  0  0  0  0  0  0  0  0
    1.7225    0.5313    0.0000 C   0  0  0  0  0  0  0  0  0  0  0  0
    0.0000    0.0000    0.0000 C   0  0  0  0  0  0  0  0  0  0  0  0
    0.6942    1.4416    0.0000 O   0  0  0  0  0  0  0  0  0  0  0  0
    2.2897    1.5611    0.0000 C   0  0  0  0  0  0  0  0  0  0  0  0
    3.1911    0.2391    0.0000 O   0  0  0  0  0  0  0  0  0  0  0  0
    4.7866    0.3587    0.0000 C   0  0  0  0  0  0  0  0  0  0  0  0
    5.6879   -0.9633    0.0000 C   0  0  0  0  0  0  0  0  0  0  0  0
    5.4808    1.8003    0.0000 C   0  0  0  0  0  0  0  0  0  0  0  0
    4.5795    3.1222    0.0000 C   0  0  0  0  0  0  0  0  0  0  0  0
    5.2737    4.5638    0.0000 N   0  0  0  0  0  0  0  0  0  0  0  0
    4.3724    5.8858    0.0000 C   0  0  0  0  0  0  0  0  0  0  0  0
    6.8692    4.6834    0.0000 C   0  0  0  0  0  0  0  0  0  0  0  0
    2.9840    3.0027    0.0000 C   0  0  0  0  0  0  0  0  0  0  0  0
    2.0826    4.3247    0.0000 O   0  0  0  0  0  0  0  0  0  0  0  0
   -1.5599    0.3560    0.0000 C   0  0  0  0  0  0  0  0  0  0  0  0
   -1.5599    1.9560    0.0000 C   0  0  0  0  0  0  0  0  0  0  0  0
   -3.1198    0.0000    0.0000 C   0  0  0  0  0  0  0  0  0  0  0  0
   -3.8140    1.4415    0.0000 O   0  0  0  0  0  0  0  0  0  0  0  0
   -5.2724    2.0996    0.0000 C   0  0  0  0  0  0  0  0  0  0  0  0
   -6.5715    1.1656    0.0000 O   0  0  0  0  0  0  0  0  0  0  0  0
   -8.0299    1.8237    0.0000 C   0  0  0  0  0  0  0  0  0  0  0  0
   -9.3290    0.8897    0.0000 C   0  0  0  0  0  0  0  0  0  0  0  0
   -8.1892    3.4157    0.0000 C   0  0  0  0  0  0  0  0  0  0  0  0
   -9.6476    4.0738    0.0000 O   0  0  0  0  0  0  0  0  0  0  0  0
   -6.8901    4.3497    0.0000 C   0  0  0  0  0  0  0  0  0  0  0  0
   -8.0355    5.4669    0.0000 O   0  0  0  0  0  0  0  0  0  0  0  0
   -5.9888    5.6717    0.0000 C   0  0  0  0  0  0  0  0  0  0  0  0
   -5.4317    3.6917    0.0000 C   0  0  0  0  0  0  0  0  0  0  0  0
   -4.3707   -0.9976    0.0000 C   0  0  0  0  0  0  0  0  0  0  0  0
   -5.6216    0.0000    0.0000 C   0  0  0  0  0  0  0  0  0  0  0  0
  1  2  2  0  0  0  0
  2  3  1  0  0  0  0
  2 49  1  0  0  0  0
  3  4  1  0  0  0  0
  4  5  1  1  0  0  0
  4  7  1  0  0  0  0
  5  6  1  0  0  0  0
  7  8  1  1  0  0  0
  7  9  1  0  0  0  0
  7 10  1  0  0  0  0
 10 11  1  1  0  0  0
 10 12  1  0  0  0  0
 12 13  1  1  0  0  0
 12 14  1  0  0  0  0
 14 15  2  0  0  0  0
 14 16  1  0  0  0  0
 16 17  1  1  0  0  0
 16 18  1  0  0  0  0
 18 19  1  0  0  0  0
 19 20  1  1  0  0  0
 19 21  1  0  0  0  0
 19 22  1  0  0  0  0
 22 23  1  1  0  0  0
 22 35  1  0  0  0  0
 24 23  1  1  0  0  0
 24 25  1  0  0  0  0
 24 33  1  0  0  0  0
 25 26  1  0  0  0  0
 26 27  1  1  0  0  0
 26 28  1  0  0  0  0
 28 29  1  0  0  0  0
 29 30  1  1  0  0  0
 29 33  1  0  0  0  0
 30 31  1  0  0  0  0
 30 32  1  0  0  0  0
 33 34  1  1  0  0  0
 35 36  1  1  0  0  0
 35 37  1  0  0  0  0
 37 38  1  1  0  0  0
 37 49  1  0  0  0  0
 39 38  1  6  0  0  0
 39 40  1  0  0  0  0
 39 48  1  0  0  0  0
 40 41  1  0  0  0  0
 41 42  1  6  0  0  0
 41 43  1  0  0  0  0
 43 44  1  6  0  0  0
 43 45  1  0  0  0  0
 45 46  1  0  0  0  0
 45 47  1  6  0  0  0
 45 48  1  0  0  0  0
 49 50  1  1  0  0  0
M  END
> <Acceptable>
true

> <IC50>
147

$$$$

Generated by Molecular Materials Informatics

 31 33  0  0  0  0  0  0  0  0999 V2000
    0.0000    0.0000    0.0000 C   0  0  0  0  0  0  0  0  0  0  0  0
   -1.3856    0.8000    0.0000 C   0  0  0  0  0  0  0  0  0  0  0  0
    0.0000   -1.6000    0.0000 C   0  0  0  0  0  0  0  0  0  0  0  0
    1.3856    0.8000    0.0000 N   0  0  0  0  0  0  0  0  0  0  0  0
   -1.3856    2.4000    0.0000 C   0  0  0  0  0  0  0  0  0  0  0  0
   -2.7713    0.0000    0.0000 C   0  0  0  0  0  0  0  0  0  0  0  0
   -1.3856   -2.4000    0.0000 N   0  0  0  0  0  0  0  0  0  0  0  0
    2.7713    0.0000    0.0000 C   0  0  0  0  0  0  0  0  0  0  0  0
    1.3856    2.4000    0.0000 C   0  0  0  0  0  0  0  0  0  0  0  0
   -2.7713    3.2000    0.0000 C   0  0  0  0  0  0  0  0  0  0  0  0
   -4.1569    0.8000    0.0000 C   0  0  0  0  0  0  0  0  0  0  0  0
   -2.8473   -1.7492    0.0000 C   0  0  0  0  0  0  0  0  0  0  0  0
   -1.5529   -3.9912    0.0000 C   0  0  0  0  0  0  0  0  0  0  0  0
    4.1569    0.8000    0.0000 C   0  0  0  0  0  0  0  0  0  0  0  0
    2.7713   -1.6000    0.0000 O   0  0  0  0  0  0  0  0  0  0  0  0
   -4.1569    2.4000    0.0000 C   0  0  0  0  0  0  0  0  0  0  0  0
   -3.9179   -2.9383    0.0000 C   0  0  0  0  0  0  0  0  0  0  0  0
   -3.1179   -4.3239    0.0000 C   0  0  0  0  0  0  0  0  0  0  0  0
    5.5426    0.0000    0.0000 C   0  0  0  0  0  0  0  0  0  0  0  0
   -3.7687   -5.7856    0.0000 O   0  0  0  0  0  0  0  0  0  0  0  0
    5.5426   -1.6000    0.0000 C   0  0  0  0  0  0  0  0  0  0  0  0
    6.9282    0.8000    0.0000 C   0  0  0  0  0  0  0  0  0  0  0  0
    6.9282   -2.4000    0.0000 C   0  0  0  0  0  0  0  0  0  0  0  0
    8.3138    0.0000    0.0000 C   0  0  0  0  0  0  0  0  0  0  0  0
    8.3138   -1.6000    0.0000 C   0  0  0  0  0  0  0  0  0  0  0  0
    9.6995   -2.4000    0.0000 C   0  0  0  0  0  0  0  0  0  0  0  0
   11.0851   -1.6000    0.0000 N   0  0  0  0  0  0  0  0  0  0  0  0
   12.4708   -2.4000    0.0000 S   0  0  0  0  0  0  0  0  0  0  0  0
   11.6708   -3.7856    0.0000 C   0  0  0  0  0  0  0  0  0  0  0  0
   13.2708   -1.0144    0.0000 O   0  0  0  0  0  0  0  0  0  0  0  0
   13.8564   -3.2000    0.0000 O   0  0  0  0  0  0  0  0  0  0  0  0
  1  2  1  0  0  0  0
  1  3  1  0  0  0  0
  1  4  1  6  0  0  0
  2  5  2  0  0  0  0
  2  6  1  0  0  0  0
  7  3  1  6  0  0  0
  4  8  1  0  0  0  0
  4  9  1  0  0  0  0
  5 10  1  0  0  0  0
  6 11  2  0  0  0  0
  7 12  1  0  0  0  0
  7 13  1  0  0  0  0
  8 14  1  0  0  0  0
  8 15  2  0  0  0  0
 10 16  2  0  0  0  0
 11 16  1  0  0  0  0
 12 17  1  0  0  0  0
 13 18  1  0  0  0  0
 14 19  1  0  0  0  0
 17 18  1  0  0  0  0
 18 20  1  1  0  0  0
 19 21  2  0  0  0  0
 19 22  1  0  0  0  0
 21 23  1  0  0  0  0
 22 24  2  0  0  0  0
 23 25  2  0  0  0  0
 24 25  1  0  0  0  0
 25 26  1  0  0  0  0
 26 27  1  0  0  0  0
 27 28  1  0  0  0  0
 28 29  1  0  0  0  0
 28 30  2  0  0  0  0
 28 31  2  0  0  0  0
M  END
> <Acceptable>
false

> <IC50>
10

$$$$

Generated by Molecular Materials Informatics

 17 18  0  0  0  0  0  0  0  0999 V2000
   -6.9282    2.4000    0.0000 O   0  0  0  0  0  0  0  0  0  0  0  0
   -6.9282    0.8000    0.0000 C   0  0  0  0  0  0  0  0  0  0  0  0
   -8.3138    0.0000    0.0000 C   0  0  0  0  0  0  0  0  0  0  0  0
   -5.5426    0.0000    0.0000 C   0  0  0  0  0  0  0  0  0  0  0  0
   -4.1569    0.8000    0.0000 C   0  0  0  0  0  0  0  0  0  0  0  0
   -2.7713    0.0000    0.0000 C   0  0  0  0  0  0  0  0  0  0  0  0
   -2.7713   -1.6000    0.0000 C   0  0  0  0  0  0  0  0  0  0  0  0
   -1.3856   -2.4000    0.0000 C   0  0  0  0  0  0  0  0  0  0  0  0
    0.0000   -1.6000    0.0000 C   0  0  0  0  0  0  0  0  0  0  0  0
    1.3856   -2.4000    0.0000 C   0  0  0  0  0  0  0  0  0  0  0  0
    2.7713   -1.6000    0.0000 C   0  0  0  0  0  0  0  0  0  0  0  0
    4.1569   -2.4000    0.0000 O   0  0  0  0  0  0  0  0  0  0  0  0
    5.5426   -1.6000    0.0000 C   0  0  0  0  0  0  0  0  0  0  0  0
    2.7713    0.0000    0.0000 C   0  0  0  0  0  0  0  0  0  0  0  0
    1.3856    0.8000    0.0000 C   0  0  0  0  0  0  0  0  0  0  0  0
    0.0000    0.0000    0.0000 C   0  0  0  0  0  0  0  0  0  0  0  0
   -1.3856    0.8000    0.0000 C   0  0  0  0  0  0  0  0  0  0  0  0
  1  2  2  0  0  0  0
  2  3  1  0  0  0  0
  2  4  1  0  0  0  0
  4  5  1  0  0  0  0
  5  6  1  0  0  0  0
  6  7  1  0  0  0  0
  6 17  2  0  0  0  0
  7  8  2  0  0  0  0
  8  9  1  0  0  0  0
  9 10  1  0  0  0  0
  9 16  2  0  0  0  0
 10 11  2  0  0  0  0
 11 12  1  0  0  0  0
 11 14  1  0  0  0  0
 12 13  1  0  0  0  0
 14 15  2  0  0  0  0
 15 16  1  0  0  0  0
 16 17  1  0  0  0  0
M  END
> <Acceptable>
true

> <IC50>
N/A

$$$$

Generated by Molecular Materials Informatics

 22 23  0  0  0  0  0  0  0  0999 V2000
   -4.1569    2.4000    0.0000 O   0  0  0  0  0  0  0  0  0  0  0  0
   -2.7713    1.6000    0.0000 C   0  0  0  0  0  0  0  0  0  0  0  0
   -2.7713    0.0000    0.0000 C   0  0  0  0  0  0  0  0  0  0  0  0
   -1.3856   -0.8000    0.0000 C   0  0  0  0  0  0  0  0  0  0  0  0
   -1.3856   -2.4000    0.0000 C   0  0  0  0  0  0  0  0  0  0  0  0
    0.0000   -3.2000    0.0000 C   0  0  0  0  0  0  0  0  0  0  0  0
    1.3856   -2.4000    0.0000 C   0  0  0  0  0  0  0  0  0  0  0  0
    1.3856   -0.8000    0.0000 C   0  0  0  0  0  0  0  0  0  0  0  0
    2.7713    0.0000    0.0000 O   0  0  0  0  0  0  0  0  0  0  0  0
    4.1569   -0.8000    0.0000 C   0  0  0  0  0  0  0  0  0  0  0  0
    5.5426    0.0000    0.0000 C   0  0  0  0  0  0  0  0  0  0  0  0
    5.5426    1.6000    0.0000 O   0  0  0  0  0  0  0  0  0  0  0  0
    6.9282   -0.8000    0.0000 C   0  0  0  0  0  0  0  0  0  0  0  0
    8.3138    0.0000    0.0000 N   0  0  0  0  0  0  0  0  0  0  0  0
    9.6995   -0.8000    0.0000 C   0  0  0  0  0  0  0  0  0  0  0  0
    9.6995   -2.4000    0.0000 C   0  0  0  0  0  0  0  0  0  0  0  0
   11.0851    0.0000    0.0000 C   0  0  0  0  0  0  0  0  0  0  0  0
   11.0851   -1.6000    0.0000 C   0  0  0  0  0  0  0  0  0  0  0  0
    0.0000    0.0000    0.0000 C   0  0  0  0  0  0  0  0  0  0  0  0
    0.0000    1.6000    0.0000 C   0  0  0  0  0  0  0  0  0  0  0  0
   -1.3856    2.4000    0.0000 C   0  0  0  0  0  0  0  0  0  0  0  0
   -1.3856    4.0000    0.0000 O   0  0  0  0  0  0  0  0  0  0  0  0
  2  1  1  1  0  0  0
  2  3  1  0  0  0  0
  2 21  1  0  0  0  0
  3  4  1  0  0  0  0
  4  5  1  0  0  0  0
  4 19  2  0  0  0  0
  5  6  2  0  0  0  0
  6  7  1  0  0  0  0
  7  8  2  0  0  0  0
  8  9  1  0  0  0  0
  8 19  1  0  0  0  0
  9 10  1  0  0  0  0
 10 11  1  0  0  0  0
 11 12  1  6  0  0  0
 11 13  1  0  0  0  0
 13 14  1  0  0  0  0
 14 15  1  0  0  0  0
 15 16  1  0  0  0  0
 15 17  1  0  0  0  0
 15 18  1  0  0  0  0
 19 20  1  0  0  0  0
 20 21  1  0  0  0  0
 21 22  1  1  0  0  0
M  END
> <Acceptable>
true

> <IC50>
N/A

$$$$

Generated by Molecular Materials Informatics

 25 30  0  0  0  0  0  0  0  0999 V2000
   -2.7713    3.2000    0.0000 O   0  0  0  0  0  0  0  0  0  0  0  0
   -1.3856    2.4000    0.0000 C   0  0  0  0  0  0  0  0  0  0  0  0
    0.0000    3.2000    0.0000 C   0  0  0  0  0  0  0  0  0  0  0  0
    1.3856    2.4000    0.0000 C   0  0  0  0  0  0  0  0  0  0  0  0
    1.3856    0.8000    0.0000 C   0  0  0  0  0  0  0  0  0  0  0  0
    2.7713    1.6000    0.0000 O   0  0  0  0  0  0  0  0  0  0  0  0
    2.7713    0.0000    0.0000 C   0  0  0  0  0  0  0  0  0  0  0  0
    2.4716   -1.1620    0.0000 N   0  0  0  0  0  0  0  0  0  0  0  0
    1.3856   -1.6725    0.0000 C   0  0  0  0  0  0  0  0  0  0  0  0
    0.2997   -1.1620    0.0000 C   0  0  0  0  0  0  0  0  0  0  0  0
    0.0000    0.0000    0.0000 C   0  0  0  0  0  0  0  0  0  0  0  0
    0.0000   -1.6000    0.0000 C   0  0  0  0  0  0  0  0  0  0  0  0
    1.3856   -2.4000    0.0000 C   0  0  0  0  0  0  0  0  0  0  0  0
    1.3856   -4.0000    0.0000 C   0  0  0  0  0  0  0  0  0  0  0  0
    0.0000   -4.8000    0.0000 C   0  0  0  0  0  0  0  0  0  0  0  0
   -1.3856   -4.0000    0.0000 C   0  0  0  0  0  0  0  0  0  0  0  0
   -2.7713   -4.8000    0.0000 O   0  0  0  0  0  0  0  0  0  0  0  0
   -1.3856   -2.4000    0.0000 C   0  0  0  0  0  0  0  0  0  0  0  0
   -3.1745   -0.8000    0.0000 O   0  0  0  0  0  0  0  0  0  0  0  0
   -1.3856    0.8000    0.0000 C   0  0  0  0  0  0  0  0  0  0  0  0
    2.7713   -1.6000    0.0000 C   0  0  0  0  0  0  0  0  0  0  0  0
    3.7037   -2.1827    0.0000 C   0  0  0  0  0  0  0  0  0  0  0  0
    5.2038   -1.6261    0.0000 C   0  0  0  0  0  0  0  0  0  0  0  0
    6.2245   -0.3940    0.0000 C   0  0  0  0  0  0  0  0  0  0  0  0
    6.7812   -1.8940    0.0000 C   0  0  0  0  0  0  0  0  0  0  0  0
  1  2  2  0  0  0  0
  2  3  1  0  0  0  0
  2 20  1  0  0  0  0
  3  4  1  0  0  0  0
  4  5  1  0  0  0  0
  5  6  1  6  0  0  0
  5  7  1  0  0  0  0
  5 11  1  0  0  0  0
  7  8  1  0  0  0  0
  7 21  1  1  0  0  0
  8  9  1  0  0  0  0
  8 22  1  1  0  0  0
  9 10  1  0  0  0  0
 11 10  1  6  0  0  0
 11 12  1  0  0  0  0
 11 20  1  0  0  0  0
 12 13  1  0  0  0  0
 12 18  2  0  0  0  0
 13 14  2  0  0  0  0
 13 21  1  0  0  0  0
 14 15  1  0  0  0  0
 15 16  2  0  0  0  0
 16 17  1  0  0  0  0
 16 18  1  0  0  0  0
 18 19  1  0  0  0  0
 20 19  1  1  0  0  0
 22 23  1  0  0  0  0
 23 24  1  0  0  0  0
 23 25  1  0  0  0  0
 24 25  1  0  0  0  0
M  END
> <Acceptable>
true

> <IC50>
N/A

$$$$

Generated by Molecular Materials Informatics

 20 20  0  0  0  0  0  0  0  0999 V2000
    5.5426    0.0000    0.0000 O   0  0  0  0  0  0  0  0  0  0  0  0
    5.5426    1.6000    0.0000 C   0  0  0  0  0  0  0  0  0  0  0  0
    4.1569    2.4000    0.0000 N   0  0  0  0  0  0  0  0  0  0  0  0
    2.7713    1.6000    0.0000 C   0  0  0  0  0  0  0  0  0  0  0  0
    1.3856    2.4000    0.0000 C   0  0  0  0  0  0  0  0  0  0  0  0
    0.0000    1.6000    0.0000 C   0  0  0  0  0  0  0  0  0  0  0  0
    0.0000    0.0000    0.0000 C   0  0  0  0  0  0  0  0  0  0  0  0
    1.3856   -0.8000    0.0000 C   0  0  0  0  0  0  0  0  0  0  0  0
    2.7713    0.0000    0.0000 C   0  0  0  0  0  0  0  0  0  0  0  0
   -1.3856   -0.8000    0.0000 C   0  0  0  0  0  0  0  0  0  0  0  0
   -1.3856   -2.4000    0.0000 O   0  0  0  0  0  0  0  0  0  0  0  0
   -2.7713    0.0000    0.0000 N   0  0  0  0  0  0  0  0  0  0  0  0
   -4.1569   -0.8000    0.0000 C   0  0  0  0  0  0  0  0  0  0  0  0
   -5.5426    0.0000    0.0000 C   0  0  0  0  0  0  0  0  0  0  0  0
   -6.9282   -0.8000    0.0000 N   0  0  0  0  0  0  0  0  0  0  0  0
   -6.9282   -2.4000    0.0000 C   0  0  0  0  0  0  0  0  0  0  0  0
   -8.3138   -3.2000    0.0000 C   0  0  0  0  0  0  0  0  0  0  0  0
   -8.3138    0.0000    0.0000 C   0  0  0  0  0  0  0  0  0  0  0  0
   -9.6995   -0.8000    0.0000 C   0  0  0  0  0  0  0  0  0  0  0  0
    6.9282    2.4000    0.0000 C   0  0  0  0  0  0  0  0  0  0  0  0
  1  2  2  0  0  0  0
  2  3  1  0  0  0  0
  2 20  1  0  0  0  0
  3  4  1  0  0  0  0
  4  5  1  0  0  0  0
  4  9  2  0  0  0  0
  5  6  2  0  0  0  0
  6  7  1  0  0  0  0
  7  8  2  0  0  0  0
  7 10  1  0  0  0  0
  8  9  1  0  0  0  0
 10 11  2  0  0  0  0
 10 12  1  0  0  0  0
 12 13  1  0  0  0  0
 13 14  1  0  0  0  0
 14 15  1  0  0  0  0
 15 16  1  0  0  0  0
 15 18  1  0  0  0  0
 16 17  1  0  0  0  0
 18 19  1  0  0  0  0
M  END
> <Acceptable>
true

> <IC50>
N/A

$$$$

Generated by Molecular Materials Informatics

 17 18  0  0  0  0  0  0  0  0999 V2000
   -5.5426   -1.6000    0.0000 O   0  0  0  0  0  0  0  0  0  0  0  0
   -5.5426    0.0000    0.0000 C   0  0  0  0  0  0  0  0  0  0  0  0
   -6.9282    0.8000    0.0000 O   0  0  0  0  0  0  0  0  0  0  0  0
   -4.1569    0.8000    0.0000 C   0  0  0  0  0  0  0  0  0  0  0  0
   -4.1569    2.4000    0.0000 C   0  0  0  0  0  0  0  0  0  0  0  0
   -2.7713    0.0000    0.0000 C   0  0  0  0  0  0  0  0  0  0  0  0
   -2.7713   -1.6000    0.0000 C   0  0  0  0  0  0  0  0  0  0  0  0
   -1.3856   -2.4000    0.0000 C   0  0  0  0  0  0  0  0  0  0  0  0
    0.0000   -1.6000    0.0000 C   0  0  0  0  0  0  0  0  0  0  0  0
    1.3856   -2.4000    0.0000 C   0  0  0  0  0  0  0  0  0  0  0  0
    2.7713   -1.6000    0.0000 C   0  0  0  0  0  0  0  0  0  0  0  0
    4.1569   -2.4000    0.0000 O   0  0  0  0  0  0  0  0  0  0  0  0
    5.5426   -1.6000    0.0000 C   0  0  0  0  0  0  0  0  0  0  0  0
    2.7713    0.0000    0.0000 C   0  0  0  0  0  0  0  0  0  0  0  0
    1.3856    0.8000    0.0000 C   0  0  0  0  0  0  0  0  0  0  0  0
    0.0000    0.0000    0.0000 C   0  0  0  0  0  0  0  0  0  0  0  0
   -1.3856    0.8000    0.0000 C   0  0  0  0  0  0  0  0  0  0  0  0
  1  2  2  0  0  0  0
  2  3  1  0  0  0  0
  2  4  1  0  0  0  0
  4  5  1  1  0  0  0
  4  6  1  0  0  0  0
  6  7  1  0  0  0  0
  6 17  2  0  0  0  0
  7  8  2  0  0  0  0
  8  9  1  0  0  0  0
  9 10  1  0  0  0  0
  9 16  2  0  0  0  0
 10 11  2  0  0  0  0
 11 12  1  0  0  0  0
 11 14  1  0  0  0  0
 12 13  1  0  0  0  0
 14 15  2  0  0  0  0
 15 16  1  0  0  0  0
 16 17  1  0  0  0  0
M  END
> <Acceptable>
true

> <IC50>
N/A

$$$$

Generated by Molecular Materials Informatics

 23 25  0  0  0  0  0  0  0  0999 V2000
   -5.6000    4.1569    0.0000 S   0  0  0  0  0  0  0  0  0  0  0  0
   -4.2144    4.9569    0.0000 O   0  0  0  0  0  0  0  0  0  0  0  0
   -6.9856    3.3569    0.0000 O   0  0  0  0  0  0  0  0  0  0  0  0
   -6.4000    5.5426    0.0000 N   0  0  0  0  0  0  0  0  0  0  0  0
   -8.0000    5.5426    0.0000 C   0  0  0  0  0  0  0  0  0  0  0  0
   -4.8000    2.7713    0.0000 C   0  0  0  0  0  0  0  0  0  0  0  0
   -3.2000    2.7713    0.0000 C   0  0  0  0  0  0  0  0  0  0  0  0
   -2.4000    1.3856    0.0000 C   0  0  0  0  0  0  0  0  0  0  0  0
   -3.2000    0.0000    0.0000 C   0  0  0  0  0  0  0  0  0  0  0  0
   -2.4000   -1.3856    0.0000 C   0  0  0  0  0  0  0  0  0  0  0  0
   -0.8000   -1.3856    0.0000 C   0  0  0  0  0  0  0  0  0  0  0  0
    0.2706   -2.5747    0.0000 N   0  0  0  0  0  0  0  0  0  0  0  0
    1.7323   -1.9239    0.0000 C   0  0  0  0  0  0  0  0  0  0  0  0
    1.5650   -0.3327    0.0000 C   0  0  0  0  0  0  0  0  0  0  0  0
    0.0000    0.0000    0.0000 C   0  0  0  0  0  0  0  0  0  0  0  0
   -0.8000    1.3856    0.0000 C   0  0  0  0  0  0  0  0  0  0  0  0
    2.7541    0.7380    0.0000 C   0  0  0  0  0  0  0  0  0  0  0  0
    4.2758    0.2435    0.0000 C   0  0  0  0  0  0  0  0  0  0  0  0
    5.4648    1.3141    0.0000 C   0  0  0  0  0  0  0  0  0  0  0  0
    5.1321    2.8792    0.0000 N   0  0  0  0  0  0  0  0  0  0  0  0
    6.3212    3.9498    0.0000 C   0  0  0  0  0  0  0  0  0  0  0  0
    3.6104    3.3736    0.0000 C   0  0  0  0  0  0  0  0  0  0  0  0
    2.4214    2.3030    0.0000 C   0  0  0  0  0  0  0  0  0  0  0  0
  1  2  2  0  0  0  0
  1  3  2  0  0  0  0
  1  4  1  0  0  0  0
  1  6  1  0  0  0  0
  4  5  1  0  0  0  0
  6  7  1  0  0  0  0
  7  8  1  0  0  0  0
  8  9  1  0  0  0  0
  8 16  2  0  0  0  0
  9 10  2  0  0  0  0
 10 11  1  0  0  0  0
 11 12  1  0  0  0  0
 11 15  2  0  0  0  0
 12 13  2  0  0  0  0
 13 14  1  0  0  0  0
 14 15  1  6  0  0  0
 14 17  1  0  0  0  0
 15 16  1  0  0  0  0
 17 18  1  1  0  0  0
 17 23  1  0  0  0  0
 18 19  1  0  0  0  0
 19 20  1  0  0  0  0
 20 21  1  1  0  0  0
 20 22  1  0  0  0  0
 22 23  1  0  0  0  0
M  END
> <Acceptable>
true

> <IC50>
N/A

$$$$

Generated by Molecular Materials Informatics

 20 22  0  0  0  0  0  0  0  0999 V2000
    2.4000    1.3856    0.0000 O   0  0  0  0  0  0  0  0  0  0  0  0
    0.0000   -2.7713    0.0000 O   0  0  0  0  0  0  0  0  0  0  0  0
   -2.4000   -1.3856    0.0000 O   0  0  0  0  0  0  0  0  0  0  0  0
   -2.4000    4.1569    0.0000 O   0  0  0  0  0  0  0  0  0  0  0  0
    9.6000    0.0000    0.0000 O   0  0  0  0  0  0  0  0  0  0  0  0
    3.2000    0.0000    0.0000 C   0  0  0  0  0  0  0  0  0  0  0  0
    2.4000   -1.3856    0.0000 C   0  0  0  0  0  0  0  0  0  0  0  0
    4.8000    0.0000    0.0000 C   0  0  0  0  0  0  0  0  0  0  0  0
    0.0000    0.0000    0.0000 C   0  0  0  0  0  0  0  0  0  0  0  0
    0.8000   -1.3856    0.0000 C   0  0  0  0  0  0  0  0  0  0  0  0
    0.8000    1.3856    0.0000 C   0  0  0  0  0  0  0  0  0  0  0  0
   -1.6000    0.0000    0.0000 C   0  0  0  0  0  0  0  0  0  0  0  0
    0.0000    2.7713    0.0000 C   0  0  0  0  0  0  0  0  0  0  0  0
    5.6000    1.3856    0.0000 C   0  0  0  0  0  0  0  0  0  0  0  0
    5.6000   -1.3856    0.0000 C   0  0  0  0  0  0  0  0  0  0  0  0
   -2.4000    1.3856    0.0000 C   0  0  0  0  0  0  0  0  0  0  0  0
   -1.6000    2.7713    0.0000 C   0  0  0  0  0  0  0  0  0  0  0  0
    7.2000    1.3856    0.0000 C   0  0  0  0  0  0  0  0  0  0  0  0
    7.2000   -1.3856    0.0000 C   0  0  0  0  0  0  0  0  0  0  0  0
    8.0000    0.0000    0.0000 C   0  0  0  0  0  0  0  0  0  0  0  0
  1  6  1  0  0  0  0
  1 11  1  0  0  0  0
  2 10  2  0  0  0  0
  3 12  1  0  0  0  0
  4 17  1  0  0  0  0
  5 20  1  0  0  0  0
  6  7  1  0  0  0  0
  6  8  1  6  0  0  0
  7 10  1  0  0  0  0
  8 14  2  0  0  0  0
  8 15  1  0  0  0  0
  9 10  1  0  0  0  0
  9 11  2  0  0  0  0
  9 12  1  0  0  0  0
 11 13  1  0  0  0  0
 12 16  2  0  0  0  0
 13 17  2  0  0  0  0
 14 18  1  0  0  0  0
 15 19  2  0  0  0  0
 16 17  1  0  0  0  0
 18 20  2  0  0  0  0
 19 20  1  0  0  0  0
M  END
> <Acceptable>
false

> <IC50>
36.5

$$$$

Generated by Molecular Materials Informatics

 23 24  0  0  0  0  0  0  0  0999 V2000
    1.6000    2.7713    0.0000 O   0  0  0  0  0  0  0  0  0  0  0  0
    2.4000    1.3856    0.0000 C   0  0  0  0  0  0  0  0  0  0  0  0
    1.6000    0.0000    0.0000 N   0  0  0  0  0  0  0  0  0  0  0  0
    0.0000    0.0000    0.0000 C   0  0  0  0  0  0  0  0  0  0  0  0
   -0.8000   -1.3856    0.0000 C   0  0  0  0  0  0  0  0  0  0  0  0
   -2.4000   -1.3856    0.0000 C   0  0  0  0  0  0  0  0  0  0  0  0
   -3.2000    0.0000    0.0000 C   0  0  0  0  0  0  0  0  0  0  0  0
   -4.8000    0.0000    0.0000 C   0  0  0  0  0  0  0  0  0  0  0  0
   -5.6000   -1.3856    0.0000 C   0  0  0  0  0  0  0  0  0  0  0  0
   -4.8000   -2.7713    0.0000 C   0  0  0  0  0  0  0  0  0  0  0  0
   -3.2000   -2.7713    0.0000 C   0  0  0  0  0  0  0  0  0  0  0  0
   -0.8000    1.3856    0.0000 C   0  0  0  0  0  0  0  0  0  0  0  0
    0.0000    2.7713    0.0000 O   0  0  0  0  0  0  0  0  0  0  0  0
   -2.4000    1.3856    0.0000 O   0  0  0  0  0  0  0  0  0  0  0  0
    4.0000    1.3856    0.0000 C   0  0  0  0  0  0  0  0  0  0  0  0
    4.8000    0.0000    0.0000 C   0  0  0  0  0  0  0  0  0  0  0  0
    6.4000    0.0000    0.0000 C   0  0  0  0  0  0  0  0  0  0  0  0
    7.2000    1.3856    0.0000 C   0  0  0  0  0  0  0  0  0  0  0  0
    6.4000    2.7713    0.0000 C   0  0  0  0  0  0  0  0  0  0  0  0
    4.8000    2.7713    0.0000 C   0  0  0  0  0  0  0  0  0  0  0  0
    8.8000    1.3856    0.0000 C   0  0  0  0  0  0  0  0  0  0  0  0
    9.6000    0.0000    0.0000 C   0  0  0  0  0  0  0  0  0  0  0  0
    9.6000    2.7713    0.0000 C   0  0  0  0  0  0  0  0  0  0  0  0
  1  2  2  0  0  0  0
  2  3  1  0  0  0  0
 15  2  1  1  0  0  0
  3  4  1  0  0  0  0
  4  5  1  6  0  0  0
  4 12  1  0  0  0  0
  5  6  1  0  0  0  0
  6  7  1  0  0  0  0
  6 11  2  0  0  0  0
  7  8  2  0  0  0  0
  8  9  1  0  0  0  0
  9 10  2  0  0  0  0
 10 11  1  0  0  0  0
 12 13  2  0  0  0  0
 12 14  1  0  0  0  0
 15 16  1  0  0  0  0
 15 20  1  0  0  0  0
 16 17  1  0  0  0  0
 17 18  1  0  0  0  0
 18 19  1  0  0  0  0
 18 21  1  6  0  0  0
 19 20  1  0  0  0  0
 21 22  1  0  0  0  0
 21 23  1  0  0  0  0
M  END
> <Acceptable>
true

> <IC50>
N/A

$$$$

Generated by Molecular Materials Informatics

 29 32  0  0  0  0  0  0  0  0999 V2000
   -4.1569   -2.4000    0.0000 F   0  0  0  0  0  0  0  0  0  0  0  0
   16.6277    0.0000    0.0000 F   0  0  0  0  0  0  0  0  0  0  0  0
    1.3856    0.8000    0.0000 O   0  0  0  0  0  0  0  0  0  0  0  0
   11.0851    3.2000    0.0000 O   0  0  0  0  0  0  0  0  0  0  0  0
    2.7713    4.8000    0.0000 O   0  0  0  0  0  0  0  0  0  0  0  0
    8.3138    4.8000    0.0000 O   0  0  0  0  0  0  0  0  0  0  0  0
    5.5426    3.2000    0.0000 N   0  0  0  0  0  0  0  0  0  0  0  0
    1.3856    2.4000    0.0000 C   0  0  0  0  0  0  0  0  0  0  0  0
    9.6995    2.4000    0.0000 C   0  0  0  0  0  0  0  0  0  0  0  0
    2.7713    3.2000    0.0000 C   0  0  0  0  0  0  0  0  0  0  0  0
    8.3138    3.2000    0.0000 C   0  0  0  0  0  0  0  0  0  0  0  0
    0.0000    3.2000    0.0000 C   0  0  0  0  0  0  0  0  0  0  0  0
    9.6995    0.8000    0.0000 C   0  0  0  0  0  0  0  0  0  0  0  0
    4.1569    2.4000    0.0000 C   0  0  0  0  0  0  0  0  0  0  0  0
    6.9282    2.4000    0.0000 C   0  0  0  0  0  0  0  0  0  0  0  0
   -1.3856    2.4000    0.0000 C   0  0  0  0  0  0  0  0  0  0  0  0
   11.0851    0.0000    0.0000 C   0  0  0  0  0  0  0  0  0  0  0  0
   -1.3856    0.8000    0.0000 C   0  0  0  0  0  0  0  0  0  0  0  0
   12.4708    0.8000    0.0000 C   0  0  0  0  0  0  0  0  0  0  0  0
    0.0000    0.0000    0.0000 C   0  0  0  0  0  0  0  0  0  0  0  0
   12.4708    2.4000    0.0000 C   0  0  0  0  0  0  0  0  0  0  0  0
   -2.7713    0.0000    0.0000 C   0  0  0  0  0  0  0  0  0  0  0  0
   13.8564    0.0000    0.0000 C   0  0  0  0  0  0  0  0  0  0  0  0
    0.0000   -1.6000    0.0000 C   0  0  0  0  0  0  0  0  0  0  0  0
   13.8564    3.2000    0.0000 C   0  0  0  0  0  0  0  0  0  0  0  0
   -2.7713   -1.6000    0.0000 C   0  0  0  0  0  0  0  0  0  0  0  0
   15.2420    0.8000    0.0000 C   0  0  0  0  0  0  0  0  0  0  0  0
   -1.3856   -2.4000    0.0000 C   0  0  0  0  0  0  0  0  0  0  0  0
   15.2420    2.4000    0.0000 C   0  0  0  0  0  0  0  0  0  0  0  0
  1 26  1  0  0  0  0
  2 27  1  0  0  0  0
  3  8  1  0  0  0  0
  3 20  1  0  0  0  0
  4  9  1  0  0  0  0
  4 21  1  0  0  0  0
 10  5  1  6  0  0  0
 11  6  1  1  0  0  0
  7 14  1  0  0  0  0
  7 15  1  0  0  0  0
  8 10  1  0  0  0  0
  8 12  1  6  0  0  0
  9 11  1  0  0  0  0
  9 13  1  6  0  0  0
 10 14  1  0  0  0  0
 11 15  1  0  0  0  0
 12 16  1  0  0  0  0
 13 17  1  0  0  0  0
 16 18  1  0  0  0  0
 17 19  1  0  0  0  0
 18 20  2  0  0  0  0
 18 22  1  0  0  0  0
 19 21  2  0  0  0  0
 19 23  1  0  0  0  0
 20 24  1  0  0  0  0
 21 25  1  0  0  0  0
 22 26  2  0  0  0  0
 23 27  2  0  0  0  0
 24 28  2  0  0  0  0
 25 29  2  0  0  0  0
 26 28  1  0  0  0  0
 27 29  1  0  0  0  0
M  END
> <Acceptable>
false

> <IC50>
0.3

$$$$

Generated by Molecular Materials Informatics

 33 36  0  0  0  0  0  0  0  0999 V2000
  -16.4099    0.6571    0.0000 Cl  0  0  0  0  0  0  0  0  0  0  0  0
  -15.1155   -0.2833    0.0000 C   0  0  0  0  0  0  0  0  0  0  0  0
  -15.2827   -1.8745    0.0000 C   0  0  0  0  0  0  0  0  0  0  0  0
  -13.9883   -2.8150    0.0000 C   0  0  0  0  0  0  0  0  0  0  0  0
  -12.5266   -2.1642    0.0000 C   0  0  0  0  0  0  0  0  0  0  0  0
  -12.3594   -0.5730    0.0000 C   0  0  0  0  0  0  0  0  0  0  0  0
  -10.8977    0.0778    0.0000 N   0  0  0  0  0  0  0  0  0  0  0  0
   -9.6033   -0.8627    0.0000 C   0  0  0  0  0  0  0  0  0  0  0  0
   -8.1416   -0.2119    0.0000 C   0  0  0  0  0  0  0  0  0  0  0  0
   -7.9743    1.3794    0.0000 N   0  0  0  0  0  0  0  0  0  0  0  0
   -9.2688    2.3198    0.0000 C   0  0  0  0  0  0  0  0  0  0  0  0
  -10.7304    1.6690    0.0000 C   0  0  0  0  0  0  0  0  0  0  0  0
   -6.5127    2.0301    0.0000 C   0  0  0  0  0  0  0  0  0  0  0  0
   -5.2182    1.0897    0.0000 C   0  0  0  0  0  0  0  0  0  0  0  0
   -3.7566    1.7405    0.0000 C   0  0  0  0  0  0  0  0  0  0  0  0
   -2.4621    0.8000    0.0000 N   0  0  0  0  0  0  0  0  0  0  0  0
   -2.4621   -0.8000    0.0000 N   0  0  0  0  0  0  0  0  0  0  0  0
   -0.9405   -1.2944    0.0000 C   0  0  0  0  0  0  0  0  0  0  0  0
    0.0000    0.0000    0.0000 N   0  0  0  0  0  0  0  0  0  0  0  0
    1.6000    0.0000    0.0000 C   0  0  0  0  0  0  0  0  0  0  0  0
    2.4000   -1.3856    0.0000 C   0  0  0  0  0  0  0  0  0  0  0  0
    4.0000   -1.3856    0.0000 O   0  0  0  0  0  0  0  0  0  0  0  0
    4.8000   -2.7713    0.0000 C   0  0  0  0  0  0  0  0  0  0  0  0
    4.0000   -4.1569    0.0000 C   0  0  0  0  0  0  0  0  0  0  0  0
    4.8000   -5.5426    0.0000 C   0  0  0  0  0  0  0  0  0  0  0  0
    6.4000   -5.5426    0.0000 C   0  0  0  0  0  0  0  0  0  0  0  0
    7.2000   -4.1569    0.0000 C   0  0  0  0  0  0  0  0  0  0  0  0
    6.4000   -2.7713    0.0000 C   0  0  0  0  0  0  0  0  0  0  0  0
   -0.9405    1.2944    0.0000 C   0  0  0  0  0  0  0  0  0  0  0  0
   -0.4460    2.8161    0.0000 O   0  0  0  0  0  0  0  0  0  0  0  0
   -0.4460   -2.8161    0.0000 C   0  0  0  0  0  0  0  0  0  0  0  0
   -1.5166   -4.0051    0.0000 C   0  0  0  0  0  0  0  0  0  0  0  0
  -13.6538    0.3675    0.0000 C   0  0  0  0  0  0  0  0  0  0  0  0
  1  2  1  0  0  0  0
  2  3  1  0  0  0  0
  2 33  2  0  0  0  0
  3  4  2  0  0  0  0
  4  5  1  0  0  0  0
  5  6  2  0  0  0  0
  6  7  1  0  0  0  0
  6 33  1  0  0  0  0
  7  8  1  0  0  0  0
  7 12  1  0  0  0  0
  8  9  1  0  0  0  0
  9 10  1  0  0  0  0
 10 11  1  0  0  0  0
 10 13  1  0  0  0  0
 11 12  1  0  0  0  0
 13 14  1  0  0  0  0
 14 15  1  0  0  0  0
 15 16  1  0  0  0  0
 16 17  1  0  0  0  0
 16 29  1  0  0  0  0
 17 18  2  0  0  0  0
 18 19  1  0  0  0  0
 18 31  1  0  0  0  0
 19 20  1  0  0  0  0
 19 29  1  0  0  0  0
 20 21  1  0  0  0  0
 21 22  1  0  0  0  0
 22 23  1  0  0  0  0
 23 24  1  0  0  0  0
 23 28  2  0  0  0  0
 24 25  2  0  0  0  0
 25 26  1  0  0  0  0
 26 27  2  0  0  0  0
 27 28  1  0  0  0  0
 29 30  2  0  0  0  0
 31 32  1  0  0  0  0
M  END
> <Acceptable>
true

> <IC50>
N/A

$$$$

Generated by Molecular Materials Informatics

 46 51  0  0  0  0  0  0  0  0999 V2000
   -1.3856   -4.0000    0.0000 O   0  0  0  0  0  0  0  0  0  0  0  0
   -4.1569   -2.4000    0.0000 O   0  0  0  0  0  0  0  0  0  0  0  0
    5.5426   -4.8000    0.0000 O   0  0  0  0  0  0  0  0  0  0  0  0
    8.3138   -6.4000    0.0000 O   0  0  0  0  0  0  0  0  0  0  0  0
    1.3856   -2.4000    0.0000 O   0  0  0  0  0  0  0  0  0  0  0  0
    8.3138    3.2000    0.0000 O   0  0  0  0  0  0  0  0  0  0  0  0
    2.7713  -11.2000    0.0000 N   0  0  0  0  0  0  0  0  0  0  0  0
    1.3856    2.4000    0.0000 N   0  0  0  0  0  0  0  0  0  0  0  0
    2.7713   -9.6000    0.0000 C   0  0  0  0  0  0  0  0  0  0  0  0
    1.3856    0.8000    0.0000 C   0  0  0  0  0  0  0  0  0  0  0  0
    0.0000    0.0000    0.0000 C   0  0  0  0  0  0  0  0  0  0  0  0
    4.1569   -8.8000    0.0000 C   0  0  0  0  0  0  0  0  0  0  0  0
    0.0000    3.2000    0.0000 C   0  0  0  0  0  0  0  0  0  0  0  0
    4.1569  -12.0000    0.0000 C   0  0  0  0  0  0  0  0  0  0  0  0
   -1.3856    2.4000    0.0000 C   0  0  0  0  0  0  0  0  0  0  0  0
   -1.3856    0.8000    0.0000 C   0  0  0  0  0  0  0  0  0  0  0  0
    5.5426  -11.2000    0.0000 C   0  0  0  0  0  0  0  0  0  0  0  0
    1.3856   -8.8000    0.0000 C   0  0  0  0  0  0  0  0  0  0  0  0
    5.5426   -9.6000    0.0000 C   0  0  0  0  0  0  0  0  0  0  0  0
    2.7713    0.0000    0.0000 C   0  0  0  0  0  0  0  0  0  0  0  0
    0.0000   -1.6000    0.0000 C   0  0  0  0  0  0  0  0  0  0  0  0
    1.3856   -7.2000    0.0000 C   0  0  0  0  0  0  0  0  0  0  0  0
    4.1569   -7.2000    0.0000 C   0  0  0  0  0  0  0  0  0  0  0  0
    1.3856  -12.0000    0.0000 C   0  0  0  0  0  0  0  0  0  0  0  0
    2.7713    3.2000    0.0000 C   0  0  0  0  0  0  0  0  0  0  0  0
   -2.7713    0.0000    0.0000 C   0  0  0  0  0  0  0  0  0  0  0  0
    6.9282   -8.8000    0.0000 C   0  0  0  0  0  0  0  0  0  0  0  0
    4.1569    0.8000    0.0000 C   0  0  0  0  0  0  0  0  0  0  0  0
   -1.3856   -2.4000    0.0000 C   0  0  0  0  0  0  0  0  0  0  0  0
   -2.7713   -1.6000    0.0000 C   0  0  0  0  0  0  0  0  0  0  0  0
    5.5426   -6.4000    0.0000 C   0  0  0  0  0  0  0  0  0  0  0  0
    6.9282   -7.2000    0.0000 C   0  0  0  0  0  0  0  0  0  0  0  0
    0.0000   -6.4000    0.0000 C   0  0  0  0  0  0  0  0  0  0  0  0
    2.7713   -6.4000    0.0000 C   0  0  0  0  0  0  0  0  0  0  0  0
    0.0000   -4.8000    0.0000 C   0  0  0  0  0  0  0  0  0  0  0  0
    4.1569    2.4000    0.0000 C   0  0  0  0  0  0  0  0  0  0  0  0
    5.5426    0.0000    0.0000 C   0  0  0  0  0  0  0  0  0  0  0  0
    1.3856   -4.0000    0.0000 C   0  0  0  0  0  0  0  0  0  0  0  0
    2.7713   -4.8000    0.0000 C   0  0  0  0  0  0  0  0  0  0  0  0
    5.5426    3.2000    0.0000 C   0  0  0  0  0  0  0  0  0  0  0  0
    6.9282    0.8000    0.0000 C   0  0  0  0  0  0  0  0  0  0  0  0
    6.9282    2.4000    0.0000 C   0  0  0  0  0  0  0  0  0  0  0  0
   -5.5426   -1.6000    0.0000 C   0  0  0  0  0  0  0  0  0  0  0  0
    6.9282   -4.0000    0.0000 C   0  0  0  0  0  0  0  0  0  0  0  0
    9.6995   -7.2000    0.0000 C   0  0  0  0  0  0  0  0  0  0  0  0
    9.6995    2.4000    0.0000 C   0  0  0  0  0  0  0  0  0  0  0  0
  1 29  1  0  0  0  0
  1 35  1  0  0  0  0
  2 30  1  0  0  0  0
  2 43  1  0  0  0  0
  3 31  1  0  0  0  0
  3 44  1  0  0  0  0
  4 32  1  0  0  0  0
  4 45  1  0  0  0  0
  5 38  1  0  0  0  0
  6 42  1  0  0  0  0
  6 46  1  0  0  0  0
  7  9  1  0  0  0  0
  7 14  1  0  0  0  0
  7 24  1  1  0  0  0
  8 10  1  0  0  0  0
  8 13  1  0  0  0  0
  8 25  1  1  0  0  0
  9 12  1  0  0  0  0
  9 18  1  6  0  0  0
 10 11  1  0  0  0  0
 10 20  1  6  0  0  0
 11 16  2  0  0  0  0
 11 21  1  0  0  0  0
 12 19  2  0  0  0  0
 12 23  1  0  0  0  0
 13 15  1  0  0  0  0
 14 17  1  0  0  0  0
 15 16  1  0  0  0  0
 16 26  1  0  0  0  0
 17 19  1  0  0  0  0
 18 22  1  0  0  0  0
 19 27  1  0  0  0  0
 20 28  1  0  0  0  0
 21 29  2  0  0  0  0
 22 33  2  0  0  0  0
 22 34  1  0  0  0  0
 23 31  2  0  0  0  0
 26 30  2  0  0  0  0
 27 32  2  0  0  0  0
 28 36  2  0  0  0  0
 28 37  1  0  0  0  0
 29 30  1  0  0  0  0
 31 32  1  0  0  0  0
 33 35  1  0  0  0  0
 34 39  2  0  0  0  0
 35 38  2  0  0  0  0
 36 40  1  0  0  0  0
 37 41  2  0  0  0  0
 38 39  1  0  0  0  0
 40 42  2  0  0  0  0
 41 42  1  0  0  0  0
M  END
> <Acceptable>
false

> <IC50>
7.419

$$$$

Generated by Molecular Materials Informatics

 40 43  0  0  0  0  0  0  0  0999 V2000
    6.9282    2.4000    0.0000 S   0  0  0  0  0  0  0  0  0  0  0  0
    5.5426    1.6000    0.0000 C   0  0  0  0  0  0  0  0  0  0  0  0
    5.5426    0.0000    0.0000 C   0  0  0  0  0  0  0  0  0  0  0  0
    6.9282   -0.8000    0.0000 N   0  0  0  0  0  0  0  0  0  0  0  0
    8.3138    0.0000    0.0000 C   0  0  0  0  0  0  0  0  0  0  0  0
    8.3138    1.6000    0.0000 O   0  0  0  0  0  0  0  0  0  0  0  0
    9.6995   -0.8000    0.0000 C   0  0  0  0  0  0  0  0  0  0  0  0
   11.0851    0.0000    0.0000 C   0  0  0  0  0  0  0  0  0  0  0  0
   12.4708   -0.8000    0.0000 C   0  0  0  0  0  0  0  0  0  0  0  0
   12.4708   -2.4000    0.0000 C   0  0  0  0  0  0  0  0  0  0  0  0
   11.0851   -3.2000    0.0000 C   0  0  0  0  0  0  0  0  0  0  0  0
   11.0851   -4.8000    0.0000 O   0  0  0  0  0  0  0  0  0  0  0  0
    9.6995   -2.4000    0.0000 C   0  0  0  0  0  0  0  0  0  0  0  0
    8.3138   -3.2000    0.0000 C   0  0  0  0  0  0  0  0  0  0  0  0
    4.1569   -0.8000    0.0000 C   0  0  0  0  0  0  0  0  0  0  0  0
    4.1569   -2.4000    0.0000 O   0  0  0  0  0  0  0  0  0  0  0  0
    2.7713    0.0000    0.0000 C   0  0  0  0  0  0  0  0  0  0  0  0
    1.3856   -0.8000    0.0000 N   0  0  0  0  0  0  0  0  0  0  0  0
    1.3856   -2.4000    0.0000 C   0  0  0  0  0  0  0  0  0  0  0  0
    0.0000   -3.2000    0.0000 C   0  0  0  0  0  0  0  0  0  0  0  0
    0.0000   -4.8000    0.0000 C   0  0  0  0  0  0  0  0  0  0  0  0
   -1.3856   -5.6000    0.0000 C   0  0  0  0  0  0  0  0  0  0  0  0
   -2.7713   -4.8000    0.0000 C   0  0  0  0  0  0  0  0  0  0  0  0
   -2.7713   -3.2000    0.0000 C   0  0  0  0  0  0  0  0  0  0  0  0
   -1.3856   -2.4000    0.0000 C   0  0  0  0  0  0  0  0  0  0  0  0
   -1.3856   -0.8000    0.0000 C   0  0  0  0  0  0  0  0  0  0  0  0
    0.0000    0.0000    0.0000 C   0  0  0  0  0  0  0  0  0  0  0  0
    0.0000    1.6000    0.0000 C   0  0  0  0  0  0  0  0  0  0  0  0
    1.3856    2.4000    0.0000 O   0  0  0  0  0  0  0  0  0  0  0  0
   -1.3856    2.4000    0.0000 N   0  0  0  0  0  0  0  0  0  0  0  0
   -1.3856    4.0000    0.0000 C   0  0  0  0  0  0  0  0  0  0  0  0
    0.0000    4.8000    0.0000 C   0  0  0  0  0  0  0  0  0  0  0  0
   -2.7713    4.8000    0.0000 C   0  0  0  0  0  0  0  0  0  0  0  0
   -1.3856    5.6000    0.0000 C   0  0  0  0  0  0  0  0  0  0  0  0
    6.9282    4.0000    0.0000 C   0  0  0  0  0  0  0  0  0  0  0  0
    5.5426    4.8000    0.0000 C   0  0  0  0  0  0  0  0  0  0  0  0
    5.5426    6.4000    0.0000 C   0  0  0  0  0  0  0  0  0  0  0  0
    6.9282    7.2000    0.0000 C   0  0  0  0  0  0  0  0  0  0  0  0
    8.3138    6.4000    0.0000 C   0  0  0  0  0  0  0  0  0  0  0  0
    8.3138    4.8000    0.0000 C   0  0  0  0  0  0  0  0  0  0  0  0
  1  2  1  0  0  0  0
  1 35  1  0  0  0  0
  2  3  1  0  0  0  0
  3  4  1  6  0  0  0
  3 15  1  0  0  0  0
  4  5  1  0  0  0  0
  5  6  2  0  0  0  0
  5  7  1  0  0  0  0
  7  8  1  0  0  0  0
  7 13  2  0  0  0  0
  8  9  2  0  0  0  0
  9 10  1  0  0  0  0
 10 11  2  0  0  0  0
 11 12  1  0  0  0  0
 11 13  1  0  0  0  0
 13 14  1  0  0  0  0
 15 16  1  6  0  0  0
 15 17  1  0  0  0  0
 18 17  1  1  0  0  0
 18 19  1  0  0  0  0
 18 27  1  0  0  0  0
 20 19  1  1  0  0  0
 20 21  1  0  0  0  0
 20 25  1  0  0  0  0
 21 22  1  0  0  0  0
 22 23  1  0  0  0  0
 23 24  1  0  0  0  0
 24 25  1  0  0  0  0
 25 26  1  1  0  0  0
 26 27  1  0  0  0  0
 27 28  1  1  0  0  0
 28 29  2  0  0  0  0
 28 30  1  0  0  0  0
 30 31  1  0  0  0  0
 31 32  1  0  0  0  0
 31 33  1  0  0  0  0
 31 34  1  0  0  0  0
 35 36  1  0  0  0  0
 35 40  2  0  0  0  0
 36 37  2  0  0  0  0
 37 38  1  0  0  0  0
 38 39  2  0  0  0  0
 39 40  1  0  0  0  0
M  END
> <Acceptable>
false

> <IC50>
11.5

$$$$

Generated by Molecular Materials Informatics

 20 23  0  0  0  0  0  0  0  0999 V2000
   -2.6098    4.4599    0.0000 O   0  0  0  0  0  0  0  0  0  0  0  0
   -2.0252    2.9705    0.0000 C   0  0  0  0  0  0  0  0  0  0  0  0
   -3.1135    1.7976    0.0000 N   0  0  0  0  0  0  0  0  0  0  0  0
   -2.8750    0.2155    0.0000 C   0  0  0  0  0  0  0  0  0  0  0  0
   -1.4894   -0.5845    0.0000 C   0  0  0  0  0  0  0  0  0  0  0  0
   -1.4894   -2.1845    0.0000 N   0  0  0  0  0  0  0  0  0  0  0  0
   -2.8750   -2.9845    0.0000 C   0  0  0  0  0  0  0  0  0  0  0  0
   -4.2607   -2.1845    0.0000 C   0  0  0  0  0  0  0  0  0  0  0  0
   -4.2607   -0.5845    0.0000 C   0  0  0  0  0  0  0  0  0  0  0  0
   -5.6463    0.2155    0.0000 C   0  0  0  0  0  0  0  0  0  0  0  0
    0.0000    0.0000    0.0000 N   0  0  0  0  0  0  0  0  0  0  0  0
    0.4716    1.5289    0.0000 C   0  0  0  0  0  0  0  0  0  0  0  0
    2.0671    1.6485    0.0000 N   0  0  0  0  0  0  0  0  0  0  0  0
    2.7614    3.0900    0.0000 C   0  0  0  0  0  0  0  0  0  0  0  0
    1.8600    4.4120    0.0000 C   0  0  0  0  0  0  0  0  0  0  0  0
    0.2645    4.2924    0.0000 C   0  0  0  0  0  0  0  0  0  0  0  0
   -0.4297    2.8509    0.0000 C   0  0  0  0  0  0  0  0  0  0  0  0
    1.1729   -1.0883    0.0000 C   0  0  0  0  0  0  0  0  0  0  0  0
    1.6445   -2.6172    0.0000 C   0  0  0  0  0  0  0  0  0  0  0  0
    2.7328   -1.4443    0.0000 C   0  0  0  0  0  0  0  0  0  0  0  0
  1  2  2  0  0  0  0
  2  3  1  0  0  0  0
  2 17  1  0  0  0  0
  3  4  1  0  0  0  0
  4  5  1  0  0  0  0
  4  9  2  0  0  0  0
  5  6  2  0  0  0  0
  5 11  1  0  0  0  0
  6  7  1  0  0  0  0
  7  8  2  0  0  0  0
  8  9  1  0  0  0  0
  9 10  1  0  0  0  0
 11 12  1  0  0  0  0
 11 18  1  0  0  0  0
 12 13  1  0  0  0  0
 12 17  2  0  0  0  0
 13 14  2  0  0  0  0
 14 15  1  0  0  0  0
 15 16  2  0  0  0  0
 16 17  1  0  0  0  0
 18 19  1  0  0  0  0
 18 20  1  0  0  0  0
 19 20  1  0  0  0  0
M  END
> <Acceptable>
true

> <IC50>
N/A

$$$$

Generated by Molecular Materials Informatics

  9  9  0  0  0  0  0  0  0  0999 V2000
   -2.4000    1.3856    0.0000 O   0  0  0  0  0  0  0  0  0  0  0  0
   -1.6000    0.0000    0.0000 C   0  0  0  0  0  0  0  0  0  0  0  0
   -2.4000   -1.3856    0.0000 O   0  0  0  0  0  0  0  0  0  0  0  0
    0.0000    0.0000    0.0000 C   0  0  0  0  0  0  0  0  0  0  0  0
    0.8000   -1.3856    0.0000 C   0  0  0  0  0  0  0  0  0  0  0  0
    2.4000   -1.3856    0.0000 N   0  0  0  0  0  0  0  0  0  0  0  0
    3.2000    0.0000    0.0000 C   0  0  0  0  0  0  0  0  0  0  0  0
    2.4000    1.3856    0.0000 C   0  0  0  0  0  0  0  0  0  0  0  0
    0.8000    1.3856    0.0000 C   0  0  0  0  0  0  0  0  0  0  0  0
  1  2  2  0  0  0  0
  2  3  1  0  0  0  0
  2  4  1  0  0  0  0
  4  5  1  0  0  0  0
  4  9  2  0  0  0  0
  5  6  2  0  0  0  0
  6  7  1  0  0  0  0
  7  8  2  0  0  0  0
  8  9  1  0  0  0  0
M  END
> <Acceptable>
true

> <IC50>
N/A

$$$$

Generated by Molecular Materials Informatics

 15 15  0  0  0  0  0  0  0  0999 V2000
   -6.9282   -0.8000    0.0000 O   0  0  0  0  0  0  0  0  0  0  0  0
   -1.3856   -2.4000    0.0000 O   0  0  0  0  0  0  0  0  0  0  0  0
   -8.3138    1.6000    0.0000 O   0  5  0  0  0  0  0  0  0  0  0  0
   -9.6995   -0.8000    0.0000 O   0  0  0  0  0  0  0  0  0  0  0  0
   -2.7713    0.0000    0.0000 N   0  0  0  0  0  0  0  0  0  0  0  0
    1.3856    2.4000    0.0000 N   0  0  0  0  0  0  0  0  0  0  0  0
   -8.3138    0.0000    0.0000 N   0  3  0  0  0  0  0  0  0  0  0  0
   -4.1569   -0.8000    0.0000 C   0  0  0  0  0  0  0  0  0  0  0  0
   -5.5426    0.0000    0.0000 C   0  0  0  0  0  0  0  0  0  0  0  0
   -1.3856   -0.8000    0.0000 C   0  0  0  0  0  0  0  0  0  0  0  0
    0.0000    0.0000    0.0000 C   0  0  0  0  0  0  0  0  0  0  0  0
    1.3856   -0.8000    0.0000 C   0  0  0  0  0  0  0  0  0  0  0  0
    0.0000    1.6000    0.0000 C   0  0  0  0  0  0  0  0  0  0  0  0
    2.7713    0.0000    0.0000 C   0  0  0  0  0  0  0  0  0  0  0  0
    2.7713    1.6000    0.0000 C   0  0  0  0  0  0  0  0  0  0  0  0
  1  7  1  0  0  0  0
  1  9  1  0  0  0  0
  2 10  2  0  0  0  0
  3  7  1  0  0  0  0
  4  7  2  0  0  0  0
  5  8  1  0  0  0  0
  5 10  1  0  0  0  0
  6 13  2  0  0  0  0
  6 15  1  0  0  0  0
  8  9  1  0  0  0  0
 10 11  1  0  0  0  0
 11 12  2  0  0  0  0
 11 13  1  0  0  0  0
 12 14  1  0  0  0  0
 14 15  2  0  0  0  0
M  CHG  2   3  -1   7   1
M  END
> <Acceptable>
true

> <IC50>
>100

$$$$

Generated by Molecular Materials Informatics

 12 13  0  0  0  0  0  0  0  0999 V2000
   -4.2178   -0.3611    0.0000 N   0  0  0  0  0  0  0  0  0  0  0  0
   -4.3850   -1.9523    0.0000 C   0  0  0  0  0  0  0  0  0  0  0  0
   -3.0906   -2.8928    0.0000 C   0  0  0  0  0  0  0  0  0  0  0  0
   -1.6289   -2.2420    0.0000 C   0  0  0  0  0  0  0  0  0  0  0  0
   -1.4617   -0.6508    0.0000 C   0  0  0  0  0  0  0  0  0  0  0  0
   -2.7561    0.2897    0.0000 C   0  0  0  0  0  0  0  0  0  0  0  0
    0.0000    0.0000    0.0000 C   0  0  0  0  0  0  0  0  0  0  0  0
    1.3856   -0.8000    0.0000 N   0  0  0  0  0  0  0  0  0  0  0  0
    1.5529   -2.3912    0.0000 C   0  0  0  0  0  0  0  0  0  0  0  0
    2.5747    0.2706    0.0000 C   0  0  0  0  0  0  0  0  0  0  0  0
    1.9239    1.7323    0.0000 C   0  0  0  0  0  0  0  0  0  0  0  0
    0.3327    1.5650    0.0000 C   0  0  0  0  0  0  0  0  0  0  0  0
  1  2  1  0  0  0  0
  1  6  2  0  0  0  0
  2  3  2  0  0  0  0
  3  4  1  0  0  0  0
  4  5  2  0  0  0  0
  5  6  1  0  0  0  0
  7  5  1  1  0  0  0
  7  8  1  0  0  0  0
  7 12  1  0  0  0  0
  8  9  1  1  0  0  0
  8 10  1  0  0  0  0
 10 11  1  0  0  0  0
 11 12  1  0  0  0  0
M  END
> <Acceptable>
true

> <IC50>
245

$$$$

Generated by Molecular Materials Informatics

 25 26  0  0  0  0  0  0  0  0999 V2000
   -1.9399    0.4800    0.0000 O   0  0  0  0  0  0  0  0  0  0  0  0
   -1.9399    2.0800    0.0000 N   0  3  0  0  0  0  0  0  0  0  0  0
   -3.3255    2.8800    0.0000 O   0  5  0  0  0  0  0  0  0  0  0  0
   -1.3856    2.4000    0.0000 C   0  0  0  0  0  0  0  0  0  0  0  0
   -1.3856    4.0000    0.0000 C   0  0  0  0  0  0  0  0  0  0  0  0
    0.0000    4.8000    0.0000 C   0  0  0  0  0  0  0  0  0  0  0  0
    1.3856    4.0000    0.0000 C   0  0  0  0  0  0  0  0  0  0  0  0
    1.3856    2.4000    0.0000 C   0  0  0  0  0  0  0  0  0  0  0  0
    0.0000    1.6000    0.0000 C   0  0  0  0  0  0  0  0  0  0  0  0
    0.0000    0.0000    0.0000 C   0  0  0  0  0  0  0  0  0  0  0  0
    1.3856   -0.8000    0.0000 C   0  0  0  0  0  0  0  0  0  0  0  0
    1.3856   -2.4000    0.0000 C   0  0  0  0  0  0  0  0  0  0  0  0
    0.0000   -3.2000    0.0000 N   0  0  0  0  0  0  0  0  0  0  0  0
   -1.3856   -2.4000    0.0000 C   0  0  0  0  0  0  0  0  0  0  0  0
   -2.7713   -3.2000    0.0000 C   0  0  0  0  0  0  0  0  0  0  0  0
   -1.3856   -0.8000    0.0000 C   0  0  0  0  0  0  0  0  0  0  0  0
   -2.9613   -0.5222    0.0000 C   0  0  0  0  0  0  0  0  0  0  0  0
   -3.5086    0.9813    0.0000 O   0  0  0  0  0  0  0  0  0  0  0  0
   -3.9898   -1.7478    0.0000 O   0  0  0  0  0  0  0  0  0  0  0  0
   -5.5655   -1.4700    0.0000 C   0  0  0  0  0  0  0  0  0  0  0  0
    2.7713   -3.2000    0.0000 C   0  0  0  0  0  0  0  0  0  0  0  0
    2.7713    0.0000    0.0000 C   0  0  0  0  0  0  0  0  0  0  0  0
    2.7713    1.6000    0.0000 O   0  0  0  0  0  0  0  0  0  0  0  0
    4.1569   -0.8000    0.0000 O   0  0  0  0  0  0  0  0  0  0  0  0
    5.5426    0.0000    0.0000 C   0  0  0  0  0  0  0  0  0  0  0  0
  1  2  2  0  0  0  0
  2  3  1  0  0  0  0
  2  4  1  0  0  0  0
  4  5  1  0  0  0  0
  4  9  2  0  0  0  0
  5  6  2  0  0  0  0
  6  7  1  0  0  0  0
  7  8  2  0  0  0  0
  8  9  1  0  0  0  0
  9 10  1  0  0  0  0
 10 11  1  0  0  0  0
 10 16  1  0  0  0  0
 11 12  2  0  0  0  0
 11 22  1  0  0  0  0
 12 13  1  0  0  0  0
 12 21  1  0  0  0  0
 13 14  1  0  0  0  0
 14 15  1  0  0  0  0
 14 16  2  0  0  0  0
 16 17  1  0  0  0  0
 17 18  2  0  0  0  0
 17 19  1  0  0  0  0
 19 20  1  0  0  0  0
 22 23  2  0  0  0  0
 22 24  1  0  0  0  0
 24 25  1  0  0  0  0
M  CHG  2   2   1   3  -1
M  END
> <Acceptable>
true

> <IC50>
616.59

$$$$

Generated by Molecular Materials Informatics

 29 30  0  0  0  0  0  0  0  0999 V2000
   -6.9282   -4.0000    0.0000 O   0  0  0  0  0  0  0  0  0  0  0  0
    4.1569    0.8000    0.0000 O   0  0  0  0  0  0  0  0  0  0  0  0
    1.3856   -4.0000    0.0000 O   0  0  0  0  0  0  0  0  0  0  0  0
  -15.2420   -4.0000    0.0000 O   0  5  0  0  0  0  0  0  0  0  0  0
  -16.6277   -1.6000    0.0000 O   0  0  0  0  0  0  0  0  0  0  0  0
   -5.5426    0.0000    0.0000 N   0  0  0  0  0  0  0  0  0  0  0  0
   -1.3856    0.8000    0.0000 N   0  0  0  0  0  0  0  0  0  0  0  0
    1.3856    0.8000    0.0000 N   0  0  0  0  0  0  0  0  0  0  0  0
    2.7713   -1.6000    0.0000 N   0  0  0  0  0  0  0  0  0  0  0  0
  -15.2420   -2.4000    0.0000 N   0  3  0  0  0  0  0  0  0  0  0  0
   -6.9282    0.8000    0.0000 C   0  0  0  0  0  0  0  0  0  0  0  0
   -4.1569    0.8000    0.0000 C   0  0  0  0  0  0  0  0  0  0  0  0
   -8.3138    0.0000    0.0000 C   0  0  0  0  0  0  0  0  0  0  0  0
   -5.5426   -1.6000    0.0000 C   0  0  0  0  0  0  0  0  0  0  0  0
   -2.7713    0.0000    0.0000 C   0  0  0  0  0  0  0  0  0  0  0  0
   -9.6995    0.8000    0.0000 C   0  0  0  0  0  0  0  0  0  0  0  0
   -6.9282   -2.4000    0.0000 C   0  0  0  0  0  0  0  0  0  0  0  0
  -11.0851    0.0000    0.0000 C   0  0  0  0  0  0  0  0  0  0  0  0
    0.0000    0.0000    0.0000 C   0  0  0  0  0  0  0  0  0  0  0  0
  -12.4708    0.8000    0.0000 C   0  0  0  0  0  0  0  0  0  0  0  0
  -11.0851   -1.6000    0.0000 C   0  0  0  0  0  0  0  0  0  0  0  0
    0.0000   -1.6000    0.0000 C   0  0  0  0  0  0  0  0  0  0  0  0
    2.7713    0.0000    0.0000 C   0  0  0  0  0  0  0  0  0  0  0  0
    1.3856   -2.4000    0.0000 C   0  0  0  0  0  0  0  0  0  0  0  0
    1.3856    2.4000    0.0000 C   0  0  0  0  0  0  0  0  0  0  0  0
  -13.8564    0.0000    0.0000 C   0  0  0  0  0  0  0  0  0  0  0  0
  -12.4708   -2.4000    0.0000 C   0  0  0  0  0  0  0  0  0  0  0  0
  -13.8564   -1.6000    0.0000 C   0  0  0  0  0  0  0  0  0  0  0  0
    4.1569   -2.4000    0.0000 C   0  0  0  0  0  0  0  0  0  0  0  0
  1 17  1  0  0  0  0
  2 23  2  0  0  0  0
  3 24  2  0  0  0  0
  4 10  1  0  0  0  0
  5 10  2  0  0  0  0
  6 11  1  0  0  0  0
  6 12  1  0  0  0  0
  6 14  1  1  0  0  0
  7 15  1  0  0  0  0
  7 19  1  0  0  0  0
  8 19  1  0  0  0  0
  8 23  1  0  0  0  0
  8 25  1  0  0  0  0
  9 23  1  0  0  0  0
  9 24  1  0  0  0  0
  9 29  1  0  0  0  0
 10 28  1  0  0  0  0
 11 13  1  0  0  0  0
 12 15  1  0  0  0  0
 13 16  1  0  0  0  0
 14 17  1  0  0  0  0
 16 18  1  0  0  0  0
 18 20  2  0  0  0  0
 18 21  1  0  0  0  0
 19 22  2  0  0  0  0
 20 26  1  0  0  0  0
 21 27  2  0  0  0  0
 22 24  1  0  0  0  0
 26 28  2  0  0  0  0
 27 28  1  0  0  0  0
M  CHG  2   4  -1  10   1
M  END
> <Acceptable>
false

> <IC50>
1.45

$$$$

Generated by Molecular Materials Informatics

 39 43  0  0  0  0  0  0  0  0999 V2000
   -2.4000   -1.3856    0.0000 F   0  0  0  0  0  0  0  0  0  0  0  0
    0.0000   -2.7713    0.0000 F   0  0  0  0  0  0  0  0  0  0  0  0
   -1.6000   -2.7713    0.0000 F   0  0  0  0  0  0  0  0  0  0  0  0
    4.0000   -1.3856    0.0000 O   0  0  0  0  0  0  0  0  0  0  0  0
   -0.8000    4.1569    0.0000 N   0  0  0  0  0  0  0  0  0  0  0  0
    4.0000    1.3856    0.0000 N   0  0  0  0  0  0  0  0  0  0  0  0
    9.6000    2.7713    0.0000 N   0  0  0  0  0  0  0  0  0  0  0  0
   -1.3383    6.6892    0.0000 N   0  0  0  0  0  0  0  0  0  0  0  0
   12.0000    1.3856    0.0000 N   0  0  0  0  0  0  0  0  0  0  0  0
   12.0000    4.1569    0.0000 N   0  0  0  0  0  0  0  0  0  0  0  0
   14.4000   -2.7713    0.0000 N   0  0  0  0  0  0  0  0  0  0  0  0
    0.0000    2.7713    0.0000 C   0  0  0  0  0  0  0  0  0  0  0  0
    2.4000    1.3856    0.0000 C   0  0  0  0  0  0  0  0  0  0  0  0
    0.0000    0.0000    0.0000 C   0  0  0  0  0  0  0  0  0  0  0  0
    1.6000    2.7713    0.0000 C   0  0  0  0  0  0  0  0  0  0  0  0
   -0.8000    1.3856    0.0000 C   0  0  0  0  0  0  0  0  0  0  0  0
    1.6000    0.0000    0.0000 C   0  0  0  0  0  0  0  0  0  0  0  0
    6.4000    0.0000    0.0000 C   0  0  0  0  0  0  0  0  0  0  0  0
    8.8000    1.3856    0.0000 C   0  0  0  0  0  0  0  0  0  0  0  0
    9.6000    0.0000    0.0000 C   0  0  0  0  0  0  0  0  0  0  0  0
    7.2000    1.3856    0.0000 C   0  0  0  0  0  0  0  0  0  0  0  0
    4.8000    0.0000    0.0000 C   0  0  0  0  0  0  0  0  0  0  0  0
   -2.3912    4.3242    0.0000 C   0  0  0  0  0  0  0  0  0  0  0  0
    7.2000   -1.3856    0.0000 C   0  0  0  0  0  0  0  0  0  0  0  0
    8.8000   -1.3856    0.0000 C   0  0  0  0  0  0  0  0  0  0  0  0
   -0.8000   -1.3856    0.0000 C   0  0  0  0  0  0  0  0  0  0  0  0
   -0.1492    5.6186    0.0000 C   0  0  0  0  0  0  0  0  0  0  0  0
   -2.7239    5.8892    0.0000 C   0  0  0  0  0  0  0  0  0  0  0  0
   11.2000    0.0000    0.0000 C   0  0  0  0  0  0  0  0  0  0  0  0
   11.2000    2.7713    0.0000 C   0  0  0  0  0  0  0  0  0  0  0  0
   -4.1856    6.5400    0.0000 C   0  0  0  0  0  0  0  0  0  0  0  0
   13.6000    1.3856    0.0000 C   0  0  0  0  0  0  0  0  0  0  0  0
   14.4000    0.0000    0.0000 C   0  0  0  0  0  0  0  0  0  0  0  0
   14.4000    2.7713    0.0000 C   0  0  0  0  0  0  0  0  0  0  0  0
   13.6000    4.1569    0.0000 C   0  0  0  0  0  0  0  0  0  0  0  0
   16.0000    0.0000    0.0000 C   0  0  0  0  0  0  0  0  0  0  0  0
   13.6000   -1.3856    0.0000 C   0  0  0  0  0  0  0  0  0  0  0  0
   16.8000   -1.3856    0.0000 C   0  0  0  0  0  0  0  0  0  0  0  0
   16.0000   -2.7713    0.0000 C   0  0  0  0  0  0  0  0  0  0  0  0
  1 26  1  0  0  0  0
  2 26  1  0  0  0  0
  3 26  1  0  0  0  0
  4 22  2  0  0  0  0
  5 12  1  0  0  0  0
  5 23  1  0  0  0  0
  5 27  1  0  0  0  0
  6 13  1  0  0  0  0
  6 22  1  0  0  0  0
  7 19  1  0  0  0  0
  7 30  1  0  0  0  0
  8 27  2  0  0  0  0
  8 28  1  0  0  0  0
  9 30  1  0  0  0  0
  9 32  2  0  0  0  0
 10 30  2  0  0  0  0
 10 35  1  0  0  0  0
 11 37  2  0  0  0  0
 11 39  1  0  0  0  0
 12 15  2  0  0  0  0
 12 16  1  0  0  0  0
 13 15  1  0  0  0  0
 13 17  2  0  0  0  0
 14 16  2  0  0  0  0
 14 17  1  0  0  0  0
 14 26  1  0  0  0  0
 18 21  1  0  0  0  0
 18 22  1  0  0  0  0
 18 24  2  0  0  0  0
 19 20  1  0  0  0  0
 19 21  2  0  0  0  0
 20 25  2  0  0  0  0
 20 29  1  0  0  0  0
 23 28  2  0  0  0  0
 24 25  1  0  0  0  0
 28 31  1  0  0  0  0
 32 33  1  0  0  0  0
 32 34  1  0  0  0  0
 33 36  2  0  0  0  0
 33 37  1  0  0  0  0
 34 35  2  0  0  0  0
 36 38  1  0  0  0  0
 38 39  2  0  0  0  0
M  END
> <Acceptable>
false

> <IC50>
0.12

$$$$

Generated by Molecular Materials Informatics

 22 23  0  0  0  0  0  0  0  0999 V2000
    6.4000    2.7713    0.0000 F   0  0  0  0  0  0  0  0  0  0  0  0
    4.8000    2.7713    0.0000 C   0  0  0  0  0  0  0  0  0  0  0  0
    4.0000    4.1569    0.0000 F   0  0  0  0  0  0  0  0  0  0  0  0
    5.6000    4.1569    0.0000 F   0  0  0  0  0  0  0  0  0  0  0  0
    4.0000    1.3856    0.0000 C   0  0  0  0  0  0  0  0  0  0  0  0
    2.4000    1.3856    0.0000 C   0  0  0  0  0  0  0  0  0  0  0  0
    1.6000    0.0000    0.0000 C   0  0  0  0  0  0  0  0  0  0  0  0
    0.0000    0.0000    0.0000 N   0  0  0  0  0  0  0  0  0  0  0  0
   -0.9405    1.2944    0.0000 C   0  0  0  0  0  0  0  0  0  0  0  0
   -0.4460    2.8161    0.0000 O   0  0  0  0  0  0  0  0  0  0  0  0
   -2.4621    0.8000    0.0000 N   0  0  0  0  0  0  0  0  0  0  0  0
   -2.4621   -0.8000    0.0000 C   0  0  0  0  0  0  0  0  0  0  0  0
   -4.0534   -0.6328    0.0000 C   0  0  0  0  0  0  0  0  0  0  0  0
   -2.7948   -2.3650    0.0000 C   0  0  0  0  0  0  0  0  0  0  0  0
   -0.9405   -1.2944    0.0000 C   0  0  0  0  0  0  0  0  0  0  0  0
   -0.4460   -2.8161    0.0000 O   0  0  0  0  0  0  0  0  0  0  0  0
    2.4000   -1.3856    0.0000 C   0  0  0  0  0  0  0  0  0  0  0  0
    4.0000   -1.3856    0.0000 C   0  0  0  0  0  0  0  0  0  0  0  0
    4.8000    0.0000    0.0000 C   0  0  0  0  0  0  0  0  0  0  0  0
    6.4000    0.0000    0.0000 N   0  3  0  0  0  0  0  0  0  0  0  0
    7.2000    1.3856    0.0000 O   0  0  0  0  0  0  0  0  0  0  0  0
    7.2000   -1.3856    0.0000 O   0  5  0  0  0  0  0  0  0  0  0  0
  1  2  1  0  0  0  0
  2  3  1  0  0  0  0
  2  4  1  0  0  0  0
  2  5  1  0  0  0  0
  5  6  1  0  0  0  0
  5 19  2  0  0  0  0
  6  7  2  0  0  0  0
  7  8  1  0  0  0  0
  7 17  1  0  0  0  0
  8  9  1  0  0  0  0
  8 15  1  0  0  0  0
  9 10  2  0  0  0  0
  9 11  1  0  0  0  0
 11 12  1  0  0  0  0
 12 13  1  0  0  0  0
 12 14  1  0  0  0  0
 12 15  1  0  0  0  0
 15 16  2  0  0  0  0
 17 18  2  0  0  0  0
 18 19  1  0  0  0  0
 19 20  1  0  0  0  0
 20 21  2  0  0  0  0
 20 22  1  0  0  0  0
M  CHG  2  20   1  22  -1
M  END
> <Acceptable>
true

> <IC50>
N/A

$$$$

Generated by Molecular Materials Informatics

 30 31  0  0  0  0  0  0  0  0999 V2000
   -5.6000    1.3856    0.0000 O   0  0  0  0  0  0  0  0  0  0  0  0
   -4.8000    2.7713    0.0000 N   0  3  0  0  0  0  0  0  0  0  0  0
   -5.6000    4.1569    0.0000 O   0  5  0  0  0  0  0  0  0  0  0  0
   -3.2000    2.7713    0.0000 C   0  0  0  0  0  0  0  0  0  0  0  0
   -2.4000    4.1569    0.0000 C   0  0  0  0  0  0  0  0  0  0  0  0
   -0.8000    4.1569    0.0000 C   0  0  0  0  0  0  0  0  0  0  0  0
    0.0000    2.7713    0.0000 C   0  0  0  0  0  0  0  0  0  0  0  0
   -0.8000    1.3856    0.0000 C   0  0  0  0  0  0  0  0  0  0  0  0
   -2.4000    1.3856    0.0000 C   0  0  0  0  0  0  0  0  0  0  0  0
    0.0000    0.0000    0.0000 C   0  0  0  0  0  0  0  0  0  0  0  0
    1.6000    0.0000    0.0000 C   0  0  0  0  0  0  0  0  0  0  0  0
    2.4000   -1.3856    0.0000 C   0  0  0  0  0  0  0  0  0  0  0  0
    1.6000   -2.7713    0.0000 N   0  0  0  0  0  0  0  0  0  0  0  0
    0.0000   -2.7713    0.0000 C   0  0  0  0  0  0  0  0  0  0  0  0
   -0.8000   -4.1569    0.0000 C   0  0  0  0  0  0  0  0  0  0  0  0
   -0.8000   -1.3856    0.0000 C   0  0  0  0  0  0  0  0  0  0  0  0
   -2.4000   -1.3856    0.0000 C   0  0  0  0  0  0  0  0  0  0  0  0
   -3.2000    0.0000    0.0000 O   0  0  0  0  0  0  0  0  0  0  0  0
   -3.2000   -2.7713    0.0000 O   0  0  0  0  0  0  0  0  0  0  0  0
   -4.8000   -2.7713    0.0000 C   0  0  0  0  0  0  0  0  0  0  0  0
   -5.6000   -1.3856    0.0000 C   0  0  0  0  0  0  0  0  0  0  0  0
   -5.6000   -4.1569    0.0000 C   0  0  0  0  0  0  0  0  0  0  0  0
    4.0000   -1.3856    0.0000 C   0  0  0  0  0  0  0  0  0  0  0  0
    2.4000    1.3856    0.0000 C   0  0  0  0  0  0  0  0  0  0  0  0
    1.6000    2.7713    0.0000 O   0  0  0  0  0  0  0  0  0  0  0  0
    4.0000    1.3856    0.0000 O   0  0  0  0  0  0  0  0  0  0  0  0
    4.8000    2.7713    0.0000 C   0  0  0  0  0  0  0  0  0  0  0  0
    6.4000    2.7713    0.0000 C   0  0  0  0  0  0  0  0  0  0  0  0
    7.2000    4.1569    0.0000 O   0  0  0  0  0  0  0  0  0  0  0  0
    8.8000    4.1569    0.0000 C   0  0  0  0  0  0  0  0  0  0  0  0
  1  2  2  0  0  0  0
  2  3  1  0  0  0  0
  2  4  1  0  0  0  0
  4  5  1  0  0  0  0
  4  9  2  0  0  0  0
  5  6  2  0  0  0  0
  6  7  1  0  0  0  0
  7  8  2  0  0  0  0
  8  9  1  0  0  0  0
 10  8  1  6  0  0  0
 10 11  1  0  0  0  0
 10 16  1  0  0  0  0
 11 12  2  0  0  0  0
 11 24  1  0  0  0  0
 12 13  1  0  0  0  0
 12 23  1  0  0  0  0
 13 14  1  0  0  0  0
 14 15  1  0  0  0  0
 14 16  2  0  0  0  0
 16 17  1  0  0  0  0
 17 18  2  0  0  0  0
 17 19  1  0  0  0  0
 19 20  1  0  0  0  0
 20 21  1  0  0  0  0
 20 22  1  0  0  0  0
 24 25  2  0  0  0  0
 24 26  1  0  0  0  0
 26 27  1  0  0  0  0
 27 28  1  0  0  0  0
 28 29  1  0  0  0  0
 29 30  1  0  0  0  0
M  CHG  2   2   1   3  -1
M  END
> <Acceptable>
true

> <IC50>
N/A

$$$$

Generated by Molecular Materials Informatics

 32 35  0  0  0  0  0  0  0  0999 V2000
    0.0000    0.0000    0.0000 C   0  0  0  0  0  0  0  0  0  0  0  0
    0.0000   -1.6000    0.0000 C   0  0  0  0  0  0  0  0  0  0  0  0
    1.3856    0.8000    0.0000 C   0  0  0  0  0  0  0  0  0  0  0  0
   -1.3856    0.8000    0.0000 C   0  0  0  0  0  0  0  0  0  0  0  0
   -1.3856   -2.4000    0.0000 N   0  0  0  0  0  0  0  0  0  0  0  0
    1.3856   -2.4000    0.0000 C   0  0  0  0  0  0  0  0  0  0  0  0
    1.3856    2.4000    0.0000 C   0  0  0  0  0  0  0  0  0  0  0  0
    2.7713    0.0000    0.0000 O   0  0  0  0  0  0  0  0  0  0  0  0
   -1.3856    2.4000    0.0000 C   0  0  0  0  0  0  0  0  0  0  0  0
   -1.3856   -4.0000    0.0000 C   0  0  0  0  0  0  0  0  0  0  0  0
    2.7713   -1.6000    0.0000 C   0  0  0  0  0  0  0  0  0  0  0  0
    1.3856   -4.0000    0.0000 O   0  0  0  0  0  0  0  0  0  0  0  0
    0.0000    3.2000    0.0000 C   0  0  0  0  0  0  0  0  0  0  0  0
   -2.7713    3.2000    0.0000 N   0  0  0  0  0  0  0  0  0  0  0  0
   -2.1856   -5.3856    0.0000 C   0  0  0  0  0  0  0  0  0  0  0  0
   -0.5856   -5.3856    0.0000 C   0  0  0  0  0  0  0  0  0  0  0  0
    3.3185   -3.1035    0.0000 C   0  0  0  0  0  0  0  0  0  0  0  0
    4.3470   -1.3222    0.0000 C   0  0  0  0  0  0  0  0  0  0  0  0
   -4.1569    2.4000    0.0000 C   0  0  0  0  0  0  0  0  0  0  0  0
   -5.5426    3.2000    0.0000 C   0  0  0  0  0  0  0  0  0  0  0  0
   -4.1569    0.8000    0.0000 O   0  0  0  0  0  0  0  0  0  0  0  0
   -6.9282    2.4000    0.0000 C   0  0  0  0  0  0  0  0  0  0  0  0
   -8.3138    3.2000    0.0000 C   0  0  0  0  0  0  0  0  0  0  0  0
   -6.9282    0.8000    0.0000 C   0  0  0  0  0  0  0  0  0  0  0  0
   -9.6995    2.4000    0.0000 C   0  0  0  0  0  0  0  0  0  0  0  0
   -8.3138    0.0000    0.0000 C   0  0  0  0  0  0  0  0  0  0  0  0
   -9.6995    0.8000    0.0000 C   0  0  0  0  0  0  0  0  0  0  0  0
  -11.0851    0.0000    0.0000 O   0  0  0  0  0  0  0  0  0  0  0  0
  -12.4708    0.8000    0.0000 C   0  0  0  0  0  0  0  0  0  0  0  0
    0.0000    4.8000    0.0000 N   0  3  0  0  0  0  0  0  0  0  0  0
   -1.3856    5.6000    0.0000 O   0  0  0  0  0  0  0  0  0  0  0  0
    1.3856    5.6000    0.0000 O   0  5  0  0  0  0  0  0  0  0  0  0
  1  2  1  0  0  0  0
  1  3  2  0  0  0  0
  1  4  1  0  0  0  0
  2  5  1  1  0  0  0
  2  6  1  0  0  0  0
  3  7  1  0  0  0  0
  3  8  1  0  0  0  0
  4  9  2  0  0  0  0
  5 10  1  0  0  0  0
  6 11  1  0  0  0  0
  6 12  1  6  0  0  0
  7 13  2  0  0  0  0
  8 11  1  0  0  0  0
  9 13  1  0  0  0  0
  9 14  1  0  0  0  0
 10 15  1  0  0  0  0
 10 16  1  0  0  0  0
 11 17  1  0  0  0  0
 11 18  1  0  0  0  0
 13 30  1  0  0  0  0
 14 19  1  0  0  0  0
 15 16  1  0  0  0  0
 19 20  1  0  0  0  0
 19 21  2  0  0  0  0
 20 22  1  0  0  0  0
 22 23  2  0  0  0  0
 22 24  1  0  0  0  0
 23 25  1  0  0  0  0
 24 26  2  0  0  0  0
 25 27  2  0  0  0  0
 26 27  1  0  0  0  0
 27 28  1  0  0  0  0
 28 29  1  0  0  0  0
 30 31  2  0  0  0  0
 30 32  1  0  0  0  0
M  CHG  2  30   1  32  -1
M  END
> <Acceptable>
true

> <IC50>
44

$$$$

Generated by Molecular Materials Informatics

 28 29  0  0  0  0  0  0  0  0999 V2000
    1.9399    0.4800    0.0000 O   0  0  0  0  0  0  0  0  0  0  0  0
    1.9399    2.0800    0.0000 N   0  3  0  0  0  0  0  0  0  0  0  0
    3.3255    2.8800    0.0000 O   0  5  0  0  0  0  0  0  0  0  0  0
    1.3856    2.4000    0.0000 C   0  0  0  0  0  0  0  0  0  0  0  0
    1.3856    4.0000    0.0000 C   0  0  0  0  0  0  0  0  0  0  0  0
    0.0000    4.8000    0.0000 C   0  0  0  0  0  0  0  0  0  0  0  0
   -1.3856    4.0000    0.0000 C   0  0  0  0  0  0  0  0  0  0  0  0
   -1.3856    2.4000    0.0000 C   0  0  0  0  0  0  0  0  0  0  0  0
    0.0000    1.6000    0.0000 C   0  0  0  0  0  0  0  0  0  0  0  0
    0.0000    0.0000    0.0000 C   0  0  0  0  0  0  0  0  0  0  0  0
    1.3856   -0.8000    0.0000 C   0  0  0  0  0  0  0  0  0  0  0  0
    1.3856   -2.4000    0.0000 C   0  0  0  0  0  0  0  0  0  0  0  0
    0.0000   -3.2000    0.0000 N   0  0  0  0  0  0  0  0  0  0  0  0
   -1.3856   -2.4000    0.0000 C   0  0  0  0  0  0  0  0  0  0  0  0
   -2.7713   -3.2000    0.0000 C   0  0  0  0  0  0  0  0  0  0  0  0
   -1.3856   -0.8000    0.0000 C   0  0  0  0  0  0  0  0  0  0  0  0
   -2.7713    0.0000    0.0000 C   0  0  0  0  0  0  0  0  0  0  0  0
   -2.7713    1.6000    0.0000 O   0  0  0  0  0  0  0  0  0  0  0  0
   -4.1569   -0.8000    0.0000 O   0  0  0  0  0  0  0  0  0  0  0  0
   -5.5426    0.0000    0.0000 C   0  0  0  0  0  0  0  0  0  0  0  0
   -6.9282   -0.8000    0.0000 C   0  0  0  0  0  0  0  0  0  0  0  0
   -6.9282   -2.4000    0.0000 C   0  0  0  0  0  0  0  0  0  0  0  0
   -8.3138    0.0000    0.0000 C   0  0  0  0  0  0  0  0  0  0  0  0
    2.7713   -3.2000    0.0000 C   0  0  0  0  0  0  0  0  0  0  0  0
    2.9613   -0.5222    0.0000 C   0  0  0  0  0  0  0  0  0  0  0  0
    3.5086    0.9813    0.0000 O   0  0  0  0  0  0  0  0  0  0  0  0
    3.9898   -1.7478    0.0000 O   0  0  0  0  0  0  0  0  0  0  0  0
    5.5655   -1.4700    0.0000 C   0  0  0  0  0  0  0  0  0  0  0  0
  1  2  2  0  0  0  0
  2  3  1  0  0  0  0
  2  4  1  0  0  0  0
  4  5  1  0  0  0  0
  4  9  2  0  0  0  0
  5  6  2  0  0  0  0
  6  7  1  0  0  0  0
  7  8  2  0  0  0  0
  8  9  1  0  0  0  0
 10  9  1  6  0  0  0
 10 11  1  0  0  0  0
 10 16  1  0  0  0  0
 11 12  2  0  0  0  0
 11 25  1  0  0  0  0
 12 13  1  0  0  0  0
 12 24  1  0  0  0  0
 13 14  1  0  0  0  0
 14 15  1  0  0  0  0
 14 16  2  0  0  0  0
 16 17  1  0  0  0  0
 17 18  2  0  0  0  0
 17 19  1  0  0  0  0
 19 20  1  0  0  0  0
 20 21  1  0  0  0  0
 21 22  1  0  0  0  0
 21 23  1  0  0  0  0
 25 26  2  0  0  0  0
 25 27  1  0  0  0  0
 27 28  1  0  0  0  0
M  CHG  2   2   1   3  -1
M  END
> <Acceptable>
true

> <IC50>
N/A

$$$$

Generated by Molecular Materials Informatics

 26 27  0  0  0  0  0  0  0  0999 V2000
   -5.6000    1.3856    0.0000 O   0  0  0  0  0  0  0  0  0  0  0  0
   -4.8000    2.7713    0.0000 N   0  3  0  0  0  0  0  0  0  0  0  0
   -5.6000    4.1569    0.0000 O   0  5  0  0  0  0  0  0  0  0  0  0
   -3.2000    2.7713    0.0000 C   0  0  0  0  0  0  0  0  0  0  0  0
   -2.4000    4.1569    0.0000 C   0  0  0  0  0  0  0  0  0  0  0  0
   -0.8000    4.1569    0.0000 C   0  0  0  0  0  0  0  0  0  0  0  0
    0.0000    2.7713    0.0000 C   0  0  0  0  0  0  0  0  0  0  0  0
   -0.8000    1.3856    0.0000 C   0  0  0  0  0  0  0  0  0  0  0  0
   -2.4000    1.3856    0.0000 C   0  0  0  0  0  0  0  0  0  0  0  0
    0.0000    0.0000    0.0000 C   0  0  0  0  0  0  0  0  0  0  0  0
    1.6000    0.0000    0.0000 C   0  0  0  0  0  0  0  0  0  0  0  0
    2.4000   -1.3856    0.0000 C   0  0  0  0  0  0  0  0  0  0  0  0
    1.6000   -2.7713    0.0000 N   0  0  0  0  0  0  0  0  0  0  0  0
    0.0000   -2.7713    0.0000 C   0  0  0  0  0  0  0  0  0  0  0  0
   -0.8000   -4.1569    0.0000 C   0  0  0  0  0  0  0  0  0  0  0  0
   -0.8000   -1.3856    0.0000 C   0  0  0  0  0  0  0  0  0  0  0  0
   -2.4000   -1.3856    0.0000 C   0  0  0  0  0  0  0  0  0  0  0  0
   -3.2000    0.0000    0.0000 O   0  0  0  0  0  0  0  0  0  0  0  0
   -3.2000   -2.7713    0.0000 O   0  0  0  0  0  0  0  0  0  0  0  0
   -4.8000   -2.7713    0.0000 C   0  0  0  0  0  0  0  0  0  0  0  0
   -5.6000   -4.1569    0.0000 C   0  0  0  0  0  0  0  0  0  0  0  0
    4.0000   -1.3856    0.0000 C   0  0  0  0  0  0  0  0  0  0  0  0
    2.4000    1.3856    0.0000 C   0  0  0  0  0  0  0  0  0  0  0  0
    1.6000    2.7713    0.0000 O   0  0  0  0  0  0  0  0  0  0  0  0
    4.0000    1.3856    0.0000 O   0  0  0  0  0  0  0  0  0  0  0  0
    4.8000    2.7713    0.0000 C   0  0  0  0  0  0  0  0  0  0  0  0
  1  2  2  0  0  0  0
  2  3  1  0  0  0  0
  2  4  1  0  0  0  0
  4  5  1  0  0  0  0
  4  9  2  0  0  0  0
  5  6  2  0  0  0  0
  6  7  1  0  0  0  0
  7  8  2  0  0  0  0
  8  9  1  0  0  0  0
 10  8  1  6  0  0  0
 10 11  1  0  0  0  0
 10 16  1  0  0  0  0
 11 12  2  0  0  0  0
 11 23  1  0  0  0  0
 12 13  1  0  0  0  0
 12 22  1  0  0  0  0
 13 14  1  0  0  0  0
 14 15  1  0  0  0  0
 14 16  2  0  0  0  0
 16 17  1  0  0  0  0
 17 18  2  0  0  0  0
 17 19  1  0  0  0  0
 19 20  1  0  0  0  0
 20 21  1  0  0  0  0
 23 24  2  0  0  0  0
 23 25  1  0  0  0  0
 25 26  1  0  0  0  0
M  CHG  2   2   1   3  -1
M  END
> <Acceptable>
true

> <IC50>
114.81

$$$$

Generated by Molecular Materials Informatics

 21 21  0  0  0  0  0  0  0  0999 V2000
    0.4944    1.5217    0.0000 S   0  0  0  0  0  0  0  0  0  0  0  0
    2.0944    1.5217    0.0000 C   0  0  0  0  0  0  0  0  0  0  0  0
    2.5889    0.0000    0.0000 C   0  0  0  0  0  0  0  0  0  0  0  0
    1.2944   -0.9405    0.0000 N   0  0  0  0  0  0  0  0  0  0  0  0
    0.0000    0.0000    0.0000 C   0  0  0  0  0  0  0  0  0  0  0  0
   -1.5217   -0.4944    0.0000 C   0  0  0  0  0  0  0  0  0  0  0  0
   -2.7107    0.5762    0.0000 N   0  0  0  0  0  0  0  0  0  0  0  0
   -2.3781    2.1412    0.0000 C   0  0  0  0  0  0  0  0  0  0  0  0
   -4.2324    0.0818    0.0000 C   0  0  0  0  0  0  0  0  0  0  0  0
    4.1105   -0.4944    0.0000 C   0  0  0  0  0  0  0  0  0  0  0  0
    5.2996    0.5762    0.0000 S   0  0  0  0  0  0  0  0  0  0  0  0
    6.8213    0.0818    0.0000 C   0  0  0  0  0  0  0  0  0  0  0  0
    8.0103    1.1524    0.0000 C   0  0  0  0  0  0  0  0  0  0  0  0
    9.5320    0.6579    0.0000 N   0  0  0  0  0  0  0  0  0  0  0  0
   10.7210    1.7285    0.0000 C   0  0  0  0  0  0  0  0  0  0  0  0
   10.3884    3.2936    0.0000 N   0  0  0  0  0  0  0  0  0  0  0  0
   11.5774    4.3642    0.0000 C   0  0  0  0  0  0  0  0  0  0  0  0
   12.2427    1.2341    0.0000 C   0  0  0  0  0  0  0  0  0  0  0  0
   12.5754   -0.3309    0.0000 N   0  3  0  0  0  0  0  0  0  0  0  0
   11.3863   -1.4015    0.0000 O   0  0  0  0  0  0  0  0  0  0  0  0
   14.0971   -0.8253    0.0000 O   0  5  0  0  0  0  0  0  0  0  0  0
  1  2  1  0  0  0  0
  1  5  1  0  0  0  0
  2  3  2  0  0  0  0
  3  4  1  0  0  0  0
  3 10  1  0  0  0  0
  4  5  2  0  0  0  0
  5  6  1  0  0  0  0
  6  7  1  0  0  0  0
  7  8  1  0  0  0  0
  7  9  1  0  0  0  0
 10 11  1  0  0  0  0
 11 12  1  0  0  0  0
 12 13  1  0  0  0  0
 13 14  1  0  0  0  0
 14 15  1  0  0  0  0
 15 16  1  0  0  0  0
 15 18  2  0  0  0  0
 16 17  1  0  0  0  0
 18 19  1  0  0  0  0
 19 20  2  0  0  0  0
 19 21  1  0  0  0  0
M  CHG  2  19   1  21  -1
M  END
> <Acceptable>
true

> <IC50>
N/A

$$$$

Generated by Molecular Materials Informatics

 22 23  0  0  0  0  0  0  0  0999 V2000
   -4.1569    0.8000    0.0000 C   0  0  0  0  0  0  0  0  0  0  0  0
   -2.7713    0.0000    0.0000 C   0  0  0  0  0  0  0  0  0  0  0  0
   -1.3856    0.8000    0.0000 C   0  0  0  0  0  0  0  0  0  0  0  0
   -1.3856    2.4000    0.0000 C   0  0  0  0  0  0  0  0  0  0  0  0
   -2.7713    3.2000    0.0000 C   0  0  0  0  0  0  0  0  0  0  0  0
   -4.1569    2.4000    0.0000 C   0  0  0  0  0  0  0  0  0  0  0  0
    0.0000    0.0000    0.0000 C   0  0  0  0  0  0  0  0  0  0  0  0
    1.3856   -0.8000    0.0000 C   0  0  0  0  0  0  0  0  0  0  0  0
    2.7713    0.0000    0.0000 C   0  0  0  0  0  0  0  0  0  0  0  0
    4.1569   -0.8000    0.0000 C   0  0  0  0  0  0  0  0  0  0  0  0
    4.1569   -2.4000    0.0000 C   0  0  0  0  0  0  0  0  0  0  0  0
    2.7713   -3.2000    0.0000 C   0  0  0  0  0  0  0  0  0  0  0  0
    1.3856   -2.4000    0.0000 C   0  0  0  0  0  0  0  0  0  0  0  0
    0.8000    1.3856    0.0000 C   0  0  0  0  0  0  0  0  0  0  0  0
   -0.8000   -1.3856    0.0000 C   0  0  0  0  0  0  0  0  0  0  0  0
    0.0000    2.7713    0.0000 O   0  0  0  0  0  0  0  0  0  0  0  0
    2.4000    1.3856    0.0000 C   0  0  0  0  0  0  0  0  0  0  0  0
    3.2000    2.7713    0.0000 C   0  0  0  0  0  0  0  0  0  0  0  0
   -2.1856   -2.1856    0.0000 C   0  0  0  0  0  0  0  0  0  0  0  0
   -2.1856   -3.7856    0.0000 N   0  0  0  0  0  0  0  0  0  0  0  0
   -3.5713   -1.3856    0.0000 C   0  0  0  0  0  0  0  0  0  0  0  0
   -3.5713   -4.5856    0.0000 C   0  0  0  0  0  0  0  0  0  0  0  0
  1  2  1  0  0  0  0
  1  6  2  0  0  0  0
  2  3  2  0  0  0  0
  3  4  1  0  0  0  0
  3  7  1  0  0  0  0
  4  5  2  0  0  0  0
  5  6  1  0  0  0  0
  7  8  1  0  0  0  0
  7 14  1  0  0  0  0
  7 15  1  0  0  0  0
  8  9  1  0  0  0  0
  8 13  2  0  0  0  0
  9 10  2  0  0  0  0
 10 11  1  0  0  0  0
 11 12  2  0  0  0  0
 12 13  1  0  0  0  0
 14 16  1  6  0  0  0
 14 17  1  0  0  0  0
 15 19  1  0  0  0  0
 17 18  1  0  0  0  0
 19 20  1  0  0  0  0
 19 21  1  6  0  0  0
 20 22  1  0  0  0  0
M  END
> <Acceptable>
false

> <IC50>
12

$$$$

Generated by Molecular Materials Informatics

 24 27  0  0  0  0  0  0  0  0999 V2000
   -6.7546    2.8523    0.0000 F   0  0  0  0  0  0  0  0  0  0  0  0
   -5.1895    2.5197    0.0000 C   0  0  0  0  0  0  0  0  0  0  0  0
   -4.1189    3.7087    0.0000 C   0  0  0  0  0  0  0  0  0  0  0  0
   -2.5539    3.3760    0.0000 C   0  0  0  0  0  0  0  0  0  0  0  0
   -2.0595    1.8544    0.0000 C   0  0  0  0  0  0  0  0  0  0  0  0
   -3.1301    0.6653    0.0000 C   0  0  0  0  0  0  0  0  0  0  0  0
   -4.6951    0.9980    0.0000 C   0  0  0  0  0  0  0  0  0  0  0  0
   -0.4944    1.5217    0.0000 C   0  0  0  0  0  0  0  0  0  0  0  0
    0.0000    0.0000    0.0000 N   0  0  0  0  0  0  0  0  0  0  0  0
    1.5217   -0.4944    0.0000 C   0  0  0  0  0  0  0  0  0  0  0  0
    2.9073    0.3056    0.0000 C   0  0  0  0  0  0  0  0  0  0  0  0
    4.2930   -0.4944    0.0000 C   0  0  0  0  0  0  0  0  0  0  0  0
    4.2930   -2.0944    0.0000 C   0  0  0  0  0  0  0  0  0  0  0  0
    2.9073   -2.8944    0.0000 C   0  0  0  0  0  0  0  0  0  0  0  0
    1.5217   -2.0944    0.0000 C   0  0  0  0  0  0  0  0  0  0  0  0
    0.0000   -2.5889    0.0000 N   0  0  0  0  0  0  0  0  0  0  0  0
   -0.9405   -1.2944    0.0000 C   0  0  0  0  0  0  0  0  0  0  0  0
   -2.5405   -1.2944    0.0000 N   0  0  0  0  0  0  0  0  0  0  0  0
   -3.3405   -2.6801    0.0000 C   0  0  0  0  0  0  0  0  0  0  0  0
   -2.5405   -4.0657    0.0000 C   0  0  0  0  0  0  0  0  0  0  0  0
   -3.3405   -5.4513    0.0000 C   0  0  0  0  0  0  0  0  0  0  0  0
   -4.9405   -5.4513    0.0000 N   0  0  0  0  0  0  0  0  0  0  0  0
   -5.7405   -4.0657    0.0000 C   0  0  0  0  0  0  0  0  0  0  0  0
   -4.9405   -2.6801    0.0000 C   0  0  0  0  0  0  0  0  0  0  0  0
  1  2  1  0  0  0  0
  2  3  1  0  0  0  0
  2  7  2  0  0  0  0
  3  4  2  0  0  0  0
  4  5  1  0  0  0  0
  5  6  2  0  0  0  0
  5  8  1  0  0  0  0
  6  7  1  0  0  0  0
  8  9  1  0  0  0  0
  9 10  1  0  0  0  0
  9 17  1  0  0  0  0
 10 11  1  0  0  0  0
 10 15  2  0  0  0  0
 11 12  2  0  0  0  0
 12 13  1  0  0  0  0
 13 14  2  0  0  0  0
 14 15  1  0  0  0  0
 15 16  1  0  0  0  0
 16 17  2  0  0  0  0
 17 18  1  0  0  0  0
 18 19  1  0  0  0  0
 19 20  1  0  0  0  0
 19 24  1  0  0  0  0
 20 21  1  0  0  0  0
 21 22  1  0  0  0  0
 22 23  1  0  0  0  0
 23 24  1  0  0  0  0
M  END
> <Acceptable>
false

> <IC50>
0.028

$$$$

Generated by Molecular Materials Informatics

 21 22  0  0  0  0  0  0  0  0999 V2000
   -2.4000    1.3856    0.0000 F   0  0  0  0  0  0  0  0  0  0  0  0
   -2.4000   -1.3856    0.0000 F   0  0  0  0  0  0  0  0  0  0  0  0
   -3.2000    0.0000    0.0000 F   0  0  0  0  0  0  0  0  0  0  0  0
    4.8000    0.0000    0.0000 O   0  0  0  0  0  0  0  0  0  0  0  0
    4.8000   -5.5426    0.0000 N   0  0  0  0  0  0  0  0  0  0  0  0
    5.6000   -1.3856    0.0000 C   0  0  0  0  0  0  0  0  0  0  0  0
    4.8000   -2.7713    0.0000 C   0  0  0  0  0  0  0  0  0  0  0  0
    7.2000   -1.3856    0.0000 C   0  0  0  0  0  0  0  0  0  0  0  0
    5.6000   -4.1569    0.0000 C   0  0  0  0  0  0  0  0  0  0  0  0
    3.2000    0.0000    0.0000 C   0  0  0  0  0  0  0  0  0  0  0  0
    8.0000    0.0000    0.0000 C   0  0  0  0  0  0  0  0  0  0  0  0
    8.0000   -2.7713    0.0000 C   0  0  0  0  0  0  0  0  0  0  0  0
    2.4000   -1.3856    0.0000 C   0  0  0  0  0  0  0  0  0  0  0  0
    2.4000    1.3856    0.0000 C   0  0  0  0  0  0  0  0  0  0  0  0
    9.6000    0.0000    0.0000 C   0  0  0  0  0  0  0  0  0  0  0  0
    9.6000   -2.7713    0.0000 C   0  0  0  0  0  0  0  0  0  0  0  0
    0.0000    0.0000    0.0000 C   0  0  0  0  0  0  0  0  0  0  0  0
    0.8000   -1.3856    0.0000 C   0  0  0  0  0  0  0  0  0  0  0  0
    0.8000    1.3856    0.0000 C   0  0  0  0  0  0  0  0  0  0  0  0
   10.4000   -1.3856    0.0000 C   0  0  0  0  0  0  0  0  0  0  0  0
   -1.6000    0.0000    0.0000 C   0  0  0  0  0  0  0  0  0  0  0  0
  1 21  1  0  0  0  0
  2 21  1  0  0  0  0
  3 21  1  0  0  0  0
  4  6  1  0  0  0  0
  4 10  1  0  0  0  0
  5  9  1  0  0  0  0
  6  7  1  0  0  0  0
  6  8  1  6  0  0  0
  7  9  1  0  0  0  0
  8 11  2  0  0  0  0
  8 12  1  0  0  0  0
 10 13  2  0  0  0  0
 10 14  1  0  0  0  0
 11 15  1  0  0  0  0
 12 16  2  0  0  0  0
 13 18  1  0  0  0  0
 14 19  2  0  0  0  0
 15 20  2  0  0  0  0
 16 20  1  0  0  0  0
 17 18  2  0  0  0  0
 17 19  1  0  0  0  0
 17 21  1  0  0  0  0
M  END
> <Acceptable>
false

> <IC50>
2.3

$$$$

Generated by Molecular Materials Informatics

 24 25  0  0  0  0  0  0  0  0999 V2000
    0.9044   -3.5292    0.0000 O   0  0  0  0  0  0  0  0  0  0  0  0
    1.9329   -2.3035    0.0000 C   0  0  0  0  0  0  0  0  0  0  0  0
    1.3856   -0.8000    0.0000 O   0  0  0  0  0  0  0  0  0  0  0  0
    0.0000    0.0000    0.0000 C   0  0  0  0  0  0  0  0  0  0  0  0
   -1.3856    0.8000    0.0000 C   0  0  0  0  0  0  0  0  0  0  0  0
   -2.1856    2.1856    0.0000 C   0  0  0  0  0  0  0  0  0  0  0  0
   -3.7856    2.1856    0.0000 C   0  0  0  0  0  0  0  0  0  0  0  0
   -4.5856    3.5713    0.0000 C   0  0  0  0  0  0  0  0  0  0  0  0
   -3.7856    4.9569    0.0000 C   0  0  0  0  0  0  0  0  0  0  0  0
   -2.1856    4.9569    0.0000 C   0  0  0  0  0  0  0  0  0  0  0  0
   -1.3856    3.5713    0.0000 C   0  0  0  0  0  0  0  0  0  0  0  0
   -0.8000   -1.3856    0.0000 C   0  0  0  0  0  0  0  0  0  0  0  0
    0.0000   -2.7713    0.0000 C   0  0  0  0  0  0  0  0  0  0  0  0
   -0.8000   -4.1569    0.0000 C   0  0  0  0  0  0  0  0  0  0  0  0
   -2.4000   -4.1569    0.0000 C   0  0  0  0  0  0  0  0  0  0  0  0
   -3.2000   -2.7713    0.0000 C   0  0  0  0  0  0  0  0  0  0  0  0
   -2.4000   -1.3856    0.0000 C   0  0  0  0  0  0  0  0  0  0  0  0
    0.8000    1.3856    0.0000 C   0  0  0  0  0  0  0  0  0  0  0  0
    0.0000    2.7713    0.0000 C   0  0  0  0  0  0  0  0  0  0  0  0
    2.4000    1.3856    0.0000 C   0  0  0  0  0  0  0  0  0  0  0  0
    3.2000    2.7713    0.0000 N   0  0  0  0  0  0  0  0  0  0  0  0
    4.8000    2.7713    0.0000 C   0  0  0  0  0  0  0  0  0  0  0  0
    3.5086   -2.5813    0.0000 C   0  0  0  0  0  0  0  0  0  0  0  0
    4.0558   -4.0849    0.0000 C   0  0  0  0  0  0  0  0  0  0  0  0
  1  2  2  0  0  0  0
  2  3  1  0  0  0  0
  2 23  1  0  0  0  0
  4  3  1  1  0  0  0
  4  5  1  0  0  0  0
  4 12  1  0  0  0  0
  4 18  1  0  0  0  0
  5  6  1  0  0  0  0
  6  7  1  0  0  0  0
  6 11  2  0  0  0  0
  7  8  2  0  0  0  0
  8  9  1  0  0  0  0
  9 10  2  0  0  0  0
 10 11  1  0  0  0  0
 12 13  1  0  0  0  0
 12 17  2  0  0  0  0
 13 14  2  0  0  0  0
 14 15  1  0  0  0  0
 15 16  2  0  0  0  0
 16 17  1  0  0  0  0
 18 19  1  6  0  0  0
 18 20  1  0  0  0  0
 20 21  1  0  0  0  0
 21 22  1  0  0  0  0
 23 24  1  0  0  0  0
M  END
> <Acceptable>
false

> <IC50>
3.63

$$$$

Generated by Molecular Materials Informatics

 20 22  0  0  0  0  0  0  0  0999 V2000
   -5.4036   -1.2333    0.0000 N   0  0  0  0  0  0  0  0  0  0  0  0
   -6.5765   -2.3216    0.0000 C   0  0  0  0  0  0  0  0  0  0  0  0
   -3.8747   -1.7049    0.0000 C   0  0  0  0  0  0  0  0  0  0  0  0
   -2.7018   -0.6167    0.0000 C   0  0  0  0  0  0  0  0  0  0  0  0
   -1.1729   -1.0883    0.0000 C   0  0  0  0  0  0  0  0  0  0  0  0
    0.0000    0.0000    0.0000 C   0  0  0  0  0  0  0  0  0  0  0  0
    1.4894   -0.5845    0.0000 C   0  0  0  0  0  0  0  0  0  0  0  0
    1.4894   -2.1845    0.0000 C   0  0  0  0  0  0  0  0  0  0  0  0
    2.8750   -2.9845    0.0000 C   0  0  0  0  0  0  0  0  0  0  0  0
    4.2607   -2.1845    0.0000 C   0  0  0  0  0  0  0  0  0  0  0  0
    4.2607   -0.5845    0.0000 C   0  0  0  0  0  0  0  0  0  0  0  0
    2.8750    0.2155    0.0000 C   0  0  0  0  0  0  0  0  0  0  0  0
    3.1135    1.7976    0.0000 C   0  0  0  0  0  0  0  0  0  0  0  0
    2.0252    2.9705    0.0000 C   0  0  0  0  0  0  0  0  0  0  0  0
    0.4297    2.8509    0.0000 C   0  0  0  0  0  0  0  0  0  0  0  0
   -0.2645    4.2924    0.0000 C   0  0  0  0  0  0  0  0  0  0  0  0
   -1.8600    4.4120    0.0000 C   0  0  0  0  0  0  0  0  0  0  0  0
   -2.7613    3.0900    0.0000 C   0  0  0  0  0  0  0  0  0  0  0  0
   -2.0671    1.6485    0.0000 C   0  0  0  0  0  0  0  0  0  0  0  0
   -0.4716    1.5289    0.0000 C   0  0  0  0  0  0  0  0  0  0  0  0
  1  2  1  0  0  0  0
  1  3  1  0  0  0  0
  3  4  1  0  0  0  0
  4  5  1  0  0  0  0
  5  6  2  0  0  0  0
  6  7  1  0  0  0  0
  6 20  1  0  0  0  0
  7  8  1  0  0  0  0
  7 12  2  0  0  0  0
  8  9  2  0  0  0  0
  9 10  1  0  0  0  0
 10 11  2  0  0  0  0
 11 12  1  0  0  0  0
 12 13  1  0  0  0  0
 13 14  1  0  0  0  0
 14 15  1  0  0  0  0
 15 16  1  0  0  0  0
 15 20  2  0  0  0  0
 16 17  2  0  0  0  0
 17 18  1  0  0  0  0
 18 19  2  0  0  0  0
 19 20  1  0  0  0  0
M  END
> <Acceptable>
false

> <IC50>
N/A

$$$$

Generated by Molecular Materials Informatics

 32 33  0  0  0  0  0  0  0  0999 V2000
  -13.8564   -3.2000    0.0000 O   0  0  0  0  0  0  0  0  0  0  0  0
  -13.8564   -4.8000    0.0000 C   0  0  0  0  0  0  0  0  0  0  0  0
  -12.4708   -2.4000    0.0000 C   0  0  0  0  0  0  0  0  0  0  0  0
  -11.0851   -3.2000    0.0000 C   0  0  0  0  0  0  0  0  0  0  0  0
   -9.6995   -2.4000    0.0000 C   0  0  0  0  0  0  0  0  0  0  0  0
   -9.6995   -0.8000    0.0000 C   0  0  0  0  0  0  0  0  0  0  0  0
  -11.0851    0.0000    0.0000 C   0  0  0  0  0  0  0  0  0  0  0  0
  -12.4708   -0.8000    0.0000 C   0  0  0  0  0  0  0  0  0  0  0  0
  -13.8564    0.0000    0.0000 O   0  0  0  0  0  0  0  0  0  0  0  0
  -13.8564    1.6000    0.0000 C   0  0  0  0  0  0  0  0  0  0  0  0
   -8.3138    0.0000    0.0000 C   0  0  0  0  0  0  0  0  0  0  0  0
   -6.9282   -0.8000    0.0000 C   0  0  0  0  0  0  0  0  0  0  0  0
   -5.5426    0.0000    0.0000 N   0  0  0  0  0  0  0  0  0  0  0  0
   -4.1569   -0.8000    0.0000 C   0  0  0  0  0  0  0  0  0  0  0  0
   -2.7713    0.0000    0.0000 C   0  0  0  0  0  0  0  0  0  0  0  0
   -1.3856   -0.8000    0.0000 C   0  0  0  0  0  0  0  0  0  0  0  0
    0.0000    0.0000    0.0000 C   0  0  0  0  0  0  0  0  0  0  0  0
    1.3856    0.8000    0.0000 C   0  0  0  0  0  0  0  0  0  0  0  0
    2.7713    1.6000    0.0000 N   0  0  0  0  0  0  0  0  0  0  0  0
    0.8000   -1.3856    0.0000 C   0  0  0  0  0  0  0  0  0  0  0  0
    0.0000   -2.7713    0.0000 C   0  0  0  0  0  0  0  0  0  0  0  0
    0.8000   -4.1569    0.0000 C   0  0  0  0  0  0  0  0  0  0  0  0
    2.4000   -4.1569    0.0000 C   0  0  0  0  0  0  0  0  0  0  0  0
    3.2000   -5.5426    0.0000 O   0  0  0  0  0  0  0  0  0  0  0  0
    2.4000   -6.9282    0.0000 C   0  0  0  0  0  0  0  0  0  0  0  0
    3.2000   -2.7713    0.0000 C   0  0  0  0  0  0  0  0  0  0  0  0
    4.8000   -2.7713    0.0000 O   0  0  0  0  0  0  0  0  0  0  0  0
    5.6000   -1.3856    0.0000 C   0  0  0  0  0  0  0  0  0  0  0  0
    2.4000   -1.3856    0.0000 C   0  0  0  0  0  0  0  0  0  0  0  0
   -0.8000    1.3856    0.0000 C   0  0  0  0  0  0  0  0  0  0  0  0
    0.0000    2.7713    0.0000 C   0  0  0  0  0  0  0  0  0  0  0  0
   -2.4000    1.3856    0.0000 C   0  0  0  0  0  0  0  0  0  0  0  0
  1  2  1  0  0  0  0
  1  3  1  0  0  0  0
  3  4  1  0  0  0  0
  3  8  2  0  0  0  0
  4  5  2  0  0  0  0
  5  6  1  0  0  0  0
  6  7  2  0  0  0  0
  6 11  1  0  0  0  0
  7  8  1  0  0  0  0
  8  9  1  0  0  0  0
  9 10  1  0  0  0  0
 11 12  1  0  0  0  0
 12 13  1  0  0  0  0
 13 14  1  0  0  0  0
 14 15  1  0  0  0  0
 15 16  1  0  0  0  0
 16 17  1  0  0  0  0
 17 18  1  0  0  0  0
 17 20  1  0  0  0  0
 17 30  1  6  0  0  0
 18 19  3  0  0  0  0
 20 21  1  0  0  0  0
 20 29  2  0  0  0  0
 21 22  2  0  0  0  0
 22 23  1  0  0  0  0
 23 24  1  0  0  0  0
 23 26  2  0  0  0  0
 24 25  1  0  0  0  0
 26 27  1  0  0  0  0
 26 29  1  0  0  0  0
 27 28  1  0  0  0  0
 30 31  1  0  0  0  0
 30 32  1  0  0  0  0
M  END
> <Acceptable>
false

> <IC50>
3.16

$$$$

Generated by Molecular Materials Informatics

 29 31  0  0  0  0  0  0  0  0999 V2000
  -15.2420   -4.0000    0.0000 Cl  0  0  0  0  0  0  0  0  0  0  0  0
   -9.6995    2.4000    0.0000 O   0  0  0  0  0  0  0  0  0  0  0  0
  -12.4708    0.8000    0.0000 O   0  0  0  0  0  0  0  0  0  0  0  0
   -6.9282    0.8000    0.0000 N   0  0  0  0  0  0  0  0  0  0  0  0
  -11.0851   -3.2000    0.0000 N   0  0  0  0  0  0  0  0  0  0  0  0
   -5.5426    0.0000    0.0000 C   0  0  0  0  0  0  0  0  0  0  0  0
   -4.1569    0.8000    0.0000 C   0  0  0  0  0  0  0  0  0  0  0  0
   -6.1549   -1.4782    0.0000 C   0  0  0  0  0  0  0  0  0  0  0  0
   -4.9303   -1.4782    0.0000 C   0  0  0  0  0  0  0  0  0  0  0  0
   -8.3138    0.0000    0.0000 C   0  0  0  0  0  0  0  0  0  0  0  0
   -2.7713    0.0000    0.0000 C   0  0  0  0  0  0  0  0  0  0  0  0
   -9.6995    0.8000    0.0000 C   0  0  0  0  0  0  0  0  0  0  0  0
   -1.3856    0.8000    0.0000 C   0  0  0  0  0  0  0  0  0  0  0  0
   -2.7713   -1.6000    0.0000 C   0  0  0  0  0  0  0  0  0  0  0  0
  -11.0851    0.0000    0.0000 C   0  0  0  0  0  0  0  0  0  0  0  0
    0.0000    0.0000    0.0000 C   0  0  0  0  0  0  0  0  0  0  0  0
    0.0000   -1.6000    0.0000 C   0  0  0  0  0  0  0  0  0  0  0  0
   -1.3856   -2.4000    0.0000 C   0  0  0  0  0  0  0  0  0  0  0  0
    1.3856    0.8000    0.0000 C   0  0  0  0  0  0  0  0  0  0  0  0
    1.3856   -2.4000    0.0000 C   0  0  0  0  0  0  0  0  0  0  0  0
    2.7713    0.0000    0.0000 C   0  0  0  0  0  0  0  0  0  0  0  0
    2.7713   -1.6000    0.0000 C   0  0  0  0  0  0  0  0  0  0  0  0
  -13.8564    0.0000    0.0000 C   0  0  0  0  0  0  0  0  0  0  0  0
  -13.8564   -1.6000    0.0000 C   0  0  0  0  0  0  0  0  0  0  0  0
  -15.2420    0.8000    0.0000 C   0  0  0  0  0  0  0  0  0  0  0  0
  -15.2420   -2.4000    0.0000 C   0  0  0  0  0  0  0  0  0  0  0  0
  -16.6277    0.0000    0.0000 C   0  0  0  0  0  0  0  0  0  0  0  0
  -16.6277   -1.6000    0.0000 C   0  0  0  0  0  0  0  0  0  0  0  0
  -12.4708   -2.4000    0.0000 C   0  0  0  0  0  0  0  0  0  0  0  0
  1 26  1  0  0  0  0
 12  2  1  6  0  0  0
  3 15  1  0  0  0  0
  3 23  1  0  0  0  0
  4  6  1  0  0  0  0
  4 10  1  0  0  0  0
  5 29  3  0  0  0  0
  6  7  1  0  0  0  0
  6  8  1  0  0  0  0
  6  9  1  0  0  0  0
  7 11  1  0  0  0  0
 10 12  1  0  0  0  0
 11 13  2  0  0  0  0
 11 14  1  0  0  0  0
 12 15  1  0  0  0  0
 13 16  1  0  0  0  0
 14 18  2  0  0  0  0
 16 17  2  0  0  0  0
 16 19  1  0  0  0  0
 17 18  1  0  0  0  0
 17 20  1  0  0  0  0
 19 21  2  0  0  0  0
 20 22  2  0  0  0  0
 21 22  1  0  0  0  0
 23 24  2  0  0  0  0
 23 25  1  0  0  0  0
 24 26  1  0  0  0  0
 24 29  1  0  0  0  0
 25 27  2  0  0  0  0
 26 28  2  0  0  0  0
 27 28  1  0  0  0  0
M  END
> <Acceptable>
false

> <IC50>
0.19

$$$$

Generated by Molecular Materials Informatics

 25 27  0  0  0  0  0  0  0  0999 V2000
   -2.7713    4.8000    0.0000 Cl  0  0  0  0  0  0  0  0  0  0  0  0
   -1.3856    4.0000    0.0000 C   0  0  0  0  0  0  0  0  0  0  0  0
    0.0000    4.8000    0.0000 C   0  0  0  0  0  0  0  0  0  0  0  0
    1.3856    4.0000    0.0000 C   0  0  0  0  0  0  0  0  0  0  0  0
    2.7713    4.8000    0.0000 Cl  0  0  0  0  0  0  0  0  0  0  0  0
    1.3856    2.4000    0.0000 C   0  0  0  0  0  0  0  0  0  0  0  0
    2.7713    1.6000    0.0000 C   0  0  0  0  0  0  0  0  0  0  0  0
    2.7713    0.0000    0.0000 C   0  0  0  0  0  0  0  0  0  0  0  0
    1.3856   -0.8000    0.0000 C   0  0  0  0  0  0  0  0  0  0  0  0
    1.3856   -2.4000    0.0000 C   0  0  0  0  0  0  0  0  0  0  0  0
    0.0000   -3.2000    0.0000 C   0  0  0  0  0  0  0  0  0  0  0  0
   -1.3856   -2.4000    0.0000 C   0  0  0  0  0  0  0  0  0  0  0  0
   -1.3856   -0.8000    0.0000 C   0  0  0  0  0  0  0  0  0  0  0  0
    0.0000    0.0000    0.0000 C   0  0  0  0  0  0  0  0  0  0  0  0
    0.0000    1.6000    0.0000 C   0  0  0  0  0  0  0  0  0  0  0  0
   -1.3856    2.4000    0.0000 C   0  0  0  0  0  0  0  0  0  0  0  0
   -2.7713   -3.2000    0.0000 C   0  0  0  0  0  0  0  0  0  0  0  0
   -4.1569   -2.4000    0.0000 F   0  0  0  0  0  0  0  0  0  0  0  0
   -2.7713   -4.8000    0.0000 F   0  0  0  0  0  0  0  0  0  0  0  0
   -4.1569   -4.0000    0.0000 F   0  0  0  0  0  0  0  0  0  0  0  0
    4.1569   -0.8000    0.0000 C   0  0  0  0  0  0  0  0  0  0  0  0
    4.1569   -2.4000    0.0000 O   0  0  0  0  0  0  0  0  0  0  0  0
    5.5426    0.0000    0.0000 C   0  0  0  0  0  0  0  0  0  0  0  0
    6.9282   -0.8000    0.0000 C   0  0  0  0  0  0  0  0  0  0  0  0
    8.3138    0.0000    0.0000 N   0  0  0  0  0  0  0  0  0  0  0  0
  1  2  1  0  0  0  0
  2  3  1  0  0  0  0
  2 16  2  0  0  0  0
  3  4  2  0  0  0  0
  4  5  1  0  0  0  0
  4  6  1  0  0  0  0
  6  7  1  0  0  0  0
  6 15  2  0  0  0  0
  7  8  2  0  0  0  0
  8  9  1  0  0  0  0
  8 21  1  0  0  0  0
  9 10  1  0  0  0  0
  9 14  2  0  0  0  0
 10 11  2  0  0  0  0
 11 12  1  0  0  0  0
 12 13  2  0  0  0  0
 12 17  1  0  0  0  0
 13 14  1  0  0  0  0
 14 15  1  0  0  0  0
 15 16  1  0  0  0  0
 17 18  1  0  0  0  0
 17 19  1  0  0  0  0
 17 20  1  0  0  0  0
 21 22  1  1  0  0  0
 21 23  1  0  0  0  0
 23 24  1  0  0  0  0
 24 25  1  0  0  0  0
M  END
> <Acceptable>
false

> <IC50>
0.71

$$$$

Generated by Molecular Materials Informatics

 26 29  0  0  0  0  0  0  0  0999 V2000
   -4.1569    2.4000    0.0000 F   0  0  0  0  0  0  0  0  0  0  0  0
   -2.7713    1.6000    0.0000 C   0  0  0  0  0  0  0  0  0  0  0  0
   -1.3856    2.4000    0.0000 C   0  0  0  0  0  0  0  0  0  0  0  0
    0.0000    1.6000    0.0000 C   0  0  0  0  0  0  0  0  0  0  0  0
    1.3856    2.4000    0.0000 C   0  0  0  0  0  0  0  0  0  0  0  0
    1.3856    4.0000    0.0000 O   0  0  0  0  0  0  0  0  0  0  0  0
    2.7713    1.6000    0.0000 C   0  0  0  0  0  0  0  0  0  0  0  0
    2.7713    0.0000    0.0000 C   0  0  0  0  0  0  0  0  0  0  0  0
    1.3856   -0.8000    0.0000 N   0  0  0  0  0  0  0  0  0  0  0  0
    0.0000    0.0000    0.0000 C   0  0  0  0  0  0  0  0  0  0  0  0
   -1.3856   -0.8000    0.0000 C   0  0  0  0  0  0  0  0  0  0  0  0
   -1.3856   -2.4000    0.0000 O   0  0  0  0  0  0  0  0  0  0  0  0
    0.0000   -3.2000    0.0000 C   0  0  0  0  0  0  0  0  0  0  0  0
    1.3856   -2.4000    0.0000 C   0  0  0  0  0  0  0  0  0  0  0  0
    2.7713   -3.2000    0.0000 C   0  0  0  0  0  0  0  0  0  0  0  0
   -2.7713    0.0000    0.0000 C   0  0  0  0  0  0  0  0  0  0  0  0
   -4.1569   -0.8000    0.0000 N   0  0  0  0  0  0  0  0  0  0  0  0
   -4.1569   -2.4000    0.0000 C   0  0  0  0  0  0  0  0  0  0  0  0
   -5.5426   -3.2000    0.0000 C   0  0  0  0  0  0  0  0  0  0  0  0
   -6.9282   -2.4000    0.0000 N   0  0  0  0  0  0  0  0  0  0  0  0
   -8.3138   -3.2000    0.0000 C   0  0  0  0  0  0  0  0  0  0  0  0
   -6.9282   -0.8000    0.0000 C   0  0  0  0  0  0  0  0  0  0  0  0
   -5.5426    0.0000    0.0000 C   0  0  0  0  0  0  0  0  0  0  0  0
    4.1569    2.4000    0.0000 C   0  0  0  0  0  0  0  0  0  0  0  0
    4.1569    4.0000    0.0000 O   0  0  0  0  0  0  0  0  0  0  0  0
    5.5426    1.6000    0.0000 O   0  0  0  0  0  0  0  0  0  0  0  0
  1  2  1  0  0  0  0
  2  3  1  0  0  0  0
  2 16  2  0  0  0  0
  3  4  2  0  0  0  0
  4  5  1  0  0  0  0
  4 10  1  0  0  0  0
  5  6  2  0  0  0  0
  5  7  1  0  0  0  0
  7  8  2  0  0  0  0
  7 24  1  0  0  0  0
  8  9  1  0  0  0  0
  9 10  1  0  0  0  0
  9 14  1  0  0  0  0
 10 11  2  0  0  0  0
 11 12  1  0  0  0  0
 11 16  1  0  0  0  0
 12 13  1  0  0  0  0
 13 14  1  0  0  0  0
 14 15  1  1  0  0  0
 16 17  1  0  0  0  0
 17 18  1  0  0  0  0
 17 23  1  0  0  0  0
 18 19  1  0  0  0  0
 19 20  1  0  0  0  0
 20 21  1  0  0  0  0
 20 22  1  0  0  0  0
 22 23  1  0  0  0  0
 24 25  2  0  0  0  0
 24 26  1  0  0  0  0
M  END
> <Acceptable>
true

> <IC50>
1412

$$$$

Generated by Molecular Materials Informatics

 22 25  0  0  0  0  0  0  0  0999 V2000
   -0.9929    4.0326    0.0000 S   0  0  0  0  0  0  0  0  0  0  0  0
   -1.4415    2.4968    0.0000 C   0  0  0  0  0  0  0  0  0  0  0  0
   -2.9705    2.0252    0.0000 N   0  0  0  0  0  0  0  0  0  0  0  0
   -3.5550    0.5358    0.0000 C   0  0  0  0  0  0  0  0  0  0  0  0
   -5.1550    0.5358    0.0000 C   0  0  0  0  0  0  0  0  0  0  0  0
   -5.9550   -0.8498    0.0000 C   0  0  0  0  0  0  0  0  0  0  0  0
   -5.1550   -2.2355    0.0000 C   0  0  0  0  0  0  0  0  0  0  0  0
   -3.5550   -2.2355    0.0000 C   0  0  0  0  0  0  0  0  0  0  0  0
   -2.7550   -0.8498    0.0000 C   0  0  0  0  0  0  0  0  0  0  0  0
   -1.1729   -1.0883    0.0000 N   0  0  0  0  0  0  0  0  0  0  0  0
    0.0000    0.0000    0.0000 C   0  0  0  0  0  0  0  0  0  0  0  0
    1.4894   -0.5845    0.0000 N   0  0  0  0  0  0  0  0  0  0  0  0
    1.7279   -2.1667    0.0000 C   0  0  0  0  0  0  0  0  0  0  0  0
    3.2173   -2.7512    0.0000 C   0  0  0  0  0  0  0  0  0  0  0  0
    4.4682   -1.7536    0.0000 N   0  0  0  0  0  0  0  0  0  0  0  0
    5.9576   -2.3382    0.0000 C   0  0  0  0  0  0  0  0  0  0  0  0
    4.2297   -0.1715    0.0000 C   0  0  0  0  0  0  0  0  0  0  0  0
    2.7403    0.4130    0.0000 C   0  0  0  0  0  0  0  0  0  0  0  0
   -0.1196    1.5955    0.0000 C   0  0  0  0  0  0  0  0  0  0  0  0
    1.1461    2.5743    0.0000 C   0  0  0  0  0  0  0  0  0  0  0  0
    0.6064    4.0805    0.0000 C   0  0  0  0  0  0  0  0  0  0  0  0
    1.5077    5.4025    0.0000 C   0  0  0  0  0  0  0  0  0  0  0  0
  1  2  1  0  0  0  0
  1 21  1  0  0  0  0
  2  3  1  0  0  0  0
  2 19  2  0  0  0  0
  3  4  1  0  0  0  0
  4  5  1  0  0  0  0
  4  9  2  0  0  0  0
  5  6  2  0  0  0  0
  6  7  1  0  0  0  0
  7  8  2  0  0  0  0
  8  9  1  0  0  0  0
  9 10  1  0  0  0  0
 10 11  2  0  0  0  0
 11 12  1  0  0  0  0
 11 19  1  0  0  0  0
 12 13  1  0  0  0  0
 12 18  1  0  0  0  0
 13 14  1  0  0  0  0
 14 15  1  0  0  0  0
 15 16  1  0  0  0  0
 15 17  1  0  0  0  0
 17 18  1  0  0  0  0
 19 20  1  0  0  0  0
 20 21  2  0  0  0  0
 21 22  1  0  0  0  0
M  END
> <Acceptable>
false

> <IC50>
0.181

$$$$

Generated by Molecular Materials Informatics

 48 51  0  0  0  0  0  0  0  0999 V2000
   -8.5699    1.9560    0.0000 O   0  0  0  0  0  0  0  0  0  0  0  0
   -7.0101    1.6000    0.0000 C   0  0  0  0  0  0  0  0  0  0  0  0
   -7.0101    0.0000    0.0000 O   0  0  0  0  0  0  0  0  0  0  0  0
   -6.3158   -1.4416    0.0000 C   0  0  0  0  0  0  0  0  0  0  0  0
   -7.5668   -2.4391    0.0000 C   0  0  0  0  0  0  0  0  0  0  0  0
   -5.0649   -2.4391    0.0000 C   0  0  0  0  0  0  0  0  0  0  0  0
   -5.7591   -3.8807    0.0000 C   0  0  0  0  0  0  0  0  0  0  0  0
   -3.5050   -2.7952    0.0000 C   0  0  0  0  0  0  0  0  0  0  0  0
   -3.5050   -4.3952    0.0000 O   0  0  0  0  0  0  0  0  0  0  0  0
   -1.9451   -2.4391    0.0000 C   0  0  0  0  0  0  0  0  0  0  0  0
   -1.2509   -3.8807    0.0000 C   0  0  0  0  0  0  0  0  0  0  0  0
   -0.6942   -1.4416    0.0000 C   0  0  0  0  0  0  0  0  0  0  0  0
    0.5567   -2.4391    0.0000 O   0  0  0  0  0  0  0  0  0  0  0  0
    0.0000    0.0000    0.0000 C   0  0  0  0  0  0  0  0  0  0  0  0
    1.1729   -1.0883    0.0000 O   0  0  0  0  0  0  0  0  0  0  0  0
    1.5289    0.4716    0.0000 C   0  0  0  0  0  0  0  0  0  0  0  0
    0.0000    1.6000    0.0000 C   0  0  0  0  0  0  0  0  0  0  0  0
   -0.6942    3.0415    0.0000 C   0  0  0  0  0  0  0  0  0  0  0  0
    0.5567    4.0391    0.0000 C   0  0  0  0  0  0  0  0  0  0  0  0
   -1.9451    4.0391    0.0000 C   0  0  0  0  0  0  0  0  0  0  0  0
   -1.2509    5.4807    0.0000 O   0  0  0  0  0  0  0  0  0  0  0  0
    0.2996    5.8755    0.0000 C   0  0  0  0  0  0  0  0  0  0  0  0
    1.4168    4.7301    0.0000 O   0  0  0  0  0  0  0  0  0  0  0  0
    2.9673    5.1249    0.0000 C   0  0  0  0  0  0  0  0  0  0  0  0
    4.0845    3.9795    0.0000 C   0  0  0  0  0  0  0  0  0  0  0  0
    3.4006    6.6651    0.0000 C   0  0  0  0  0  0  0  0  0  0  0  0
    2.2835    7.8105    0.0000 C   0  0  0  0  0  0  0  0  0  0  0  0
    2.7168    9.3507    0.0000 N   0  0  0  0  0  0  0  0  0  0  0  0
    1.5996   10.4961    0.0000 C   0  0  0  0  0  0  0  0  0  0  0  0
    4.2673    9.7455    0.0000 C   0  0  0  0  0  0  0  0  0  0  0  0
    0.7329    7.4157    0.0000 C   0  0  0  0  0  0  0  0  0  0  0  0
   -0.3842    8.5611    0.0000 O   0  0  0  0  0  0  0  0  0  0  0  0
   -3.5050    4.3952    0.0000 C   0  0  0  0  0  0  0  0  0  0  0  0
   -3.5050    5.9952    0.0000 C   0  0  0  0  0  0  0  0  0  0  0  0
   -5.0649    4.0391    0.0000 C   0  0  0  0  0  0  0  0  0  0  0  0
   -5.7591    5.4807    0.0000 O   0  0  0  0  0  0  0  0  0  0  0  0
   -7.2175    6.1387    0.0000 C   0  0  0  0  0  0  0  0  0  0  0  0
   -8.5166    5.2047    0.0000 O   0  0  0  0  0  0  0  0  0  0  0  0
   -9.9751    5.8628    0.0000 C   0  0  0  0  0  0  0  0  0  0  0  0
  -11.2742    4.9288    0.0000 C   0  0  0  0  0  0  0  0  0  0  0  0
  -10.1344    7.4549    0.0000 C   0  0  0  0  0  0  0  0  0  0  0  0
  -11.5928    8.1129    0.0000 O   0  0  0  0  0  0  0  0  0  0  0  0
   -8.8353    8.3888    0.0000 C   0  0  0  0  0  0  0  0  0  0  0  0
   -8.9946    9.9809    0.0000 O   0  0  0  0  0  0  0  0  0  0  0  0
  -10.4530   10.6390    0.0000 C   0  0  0  0  0  0  0  0  0  0  0  0
   -7.3768    7.7308    0.0000 C   0  0  0  0  0  0  0  0  0  0  0  0
   -6.3158    3.0415    0.0000 C   0  0  0  0  0  0  0  0  0  0  0  0
   -7.5668    4.0391    0.0000 C   0  0  0  0  0  0  0  0  0  0  0  0
  1  2  2  0  0  0  0
  2  3  1  0  0  0  0
  2 47  1  0  0  0  0
  3  4  1  0  0  0  0
  4  5  1  1  0  0  0
  4  6  1  0  0  0  0
  6  7  1  1  0  0  0
  6  8  1  0  0  0  0
  8  9  1  1  0  0  0
  8 10  1  0  0  0  0
 10 11  1  1  0  0  0
 10 12  1  0  0  0  0
 12 13  2  0  0  0  0
 12 14  1  0  0  0  0
 14 15  1  0  0  0  0
 14 16  1  0  0  0  0
 14 17  1  6  0  0  0
 15 16  1  0  0  0  0
 17 18  1  0  0  0  0
 18 19  1  1  0  0  0
 18 20  1  0  0  0  0
 20 21  1  1  0  0  0
 20 33  1  0  0  0  0
 22 21  1  1  0  0  0
 22 23  1  0  0  0  0
 22 31  1  0  0  0  0
 23 24  1  0  0  0  0
 24 25  1  1  0  0  0
 24 26  1  0  0  0  0
 26 27  1  0  0  0  0
 27 28  1  1  0  0  0
 27 31  1  0  0  0  0
 28 29  1  0  0  0  0
 28 30  1  0  0  0  0
 31 32  1  1  0  0  0
 33 34  1  1  0  0  0
 33 35  1  0  0  0  0
 35 36  1  1  0  0  0
 35 47  1  0  0  0  0
 37 36  1  6  0  0  0
 37 38  1  0  0  0  0
 37 46  1  0  0  0  0
 38 39  1  0  0  0  0
 39 40  1  6  0  0  0
 39 41  1  0  0  0  0
 41 42  1  6  0  0  0
 41 43  1  0  0  0  0
 43 44  1  6  0  0  0
 43 46  1  0  0  0  0
 44 45  1  0  0  0  0
 47 48  1  1  0  0  0
M  END
> <Acceptable>
true

> <IC50>
309

$$$$

Generated by Molecular Materials Informatics

 24 26  0  0  0  0  0  0  0  0999 V2000
   -4.0621    0.8000    0.0000 S   0  0  0  0  0  0  0  0  0  0  0  0
   -4.8621   -0.5856    0.0000 O   0  0  0  0  0  0  0  0  0  0  0  0
   -4.8621    2.1856    0.0000 C   0  0  0  0  0  0  0  0  0  0  0  0
   -6.4621    2.1856    0.0000 C   0  0  0  0  0  0  0  0  0  0  0  0
   -7.2621    0.8000    0.0000 N   0  0  0  0  0  0  0  0  0  0  0  0
   -8.8621    0.8000    0.0000 C   0  0  0  0  0  0  0  0  0  0  0  0
   -9.6621    2.1856    0.0000 C   0  0  0  0  0  0  0  0  0  0  0  0
  -11.2621    2.1856    0.0000 C   0  0  0  0  0  0  0  0  0  0  0  0
   -8.8621    3.5713    0.0000 C   0  0  0  0  0  0  0  0  0  0  0  0
   -9.6621    4.9569    0.0000 O   0  0  0  0  0  0  0  0  0  0  0  0
  -11.2621    4.9569    0.0000 C   0  0  0  0  0  0  0  0  0  0  0  0
   -7.2621    3.5713    0.0000 C   0  0  0  0  0  0  0  0  0  0  0  0
   -6.4621    4.9569    0.0000 C   0  0  0  0  0  0  0  0  0  0  0  0
   -2.4621    0.8000    0.0000 C   0  0  0  0  0  0  0  0  0  0  0  0
   -1.5217    2.0944    0.0000 N   0  0  0  0  0  0  0  0  0  0  0  0
    0.0000    1.6000    0.0000 C   0  0  0  0  0  0  0  0  0  0  0  0
    1.3856    2.4000    0.0000 C   0  0  0  0  0  0  0  0  0  0  0  0
    2.7713    1.6000    0.0000 C   0  0  0  0  0  0  0  0  0  0  0  0
    2.7713    0.0000    0.0000 C   0  0  0  0  0  0  0  0  0  0  0  0
    4.1569   -0.8000    0.0000 O   0  0  0  0  0  0  0  0  0  0  0  0
    5.5426    0.0000    0.0000 C   0  0  0  0  0  0  0  0  0  0  0  0
    1.3856   -0.8000    0.0000 C   0  0  0  0  0  0  0  0  0  0  0  0
    0.0000    0.0000    0.0000 C   0  0  0  0  0  0  0  0  0  0  0  0
   -1.5217   -0.4944    0.0000 N   0  0  0  0  0  0  0  0  0  0  0  0
  1  2  1  6  0  0  0
  1  3  1  0  0  0  0
  1 14  1  0  0  0  0
  3  4  1  0  0  0  0
  4  5  1  0  0  0  0
  4 12  2  0  0  0  0
  5  6  2  0  0  0  0
  6  7  1  0  0  0  0
  7  8  1  0  0  0  0
  7  9  2  0  0  0  0
  9 10  1  0  0  0  0
  9 12  1  0  0  0  0
 10 11  1  0  0  0  0
 12 13  1  0  0  0  0
 14 15  2  0  0  0  0
 14 24  1  0  0  0  0
 15 16  1  0  0  0  0
 16 17  1  0  0  0  0
 16 23  2  0  0  0  0
 17 18  2  0  0  0  0
 18 19  1  0  0  0  0
 19 20  1  0  0  0  0
 19 22  2  0  0  0  0
 20 21  1  0  0  0  0
 22 23  1  0  0  0  0
 23 24  1  0  0  0  0
M  END
> <Acceptable>
true

> <IC50>
N/A

$$$$

Generated by Molecular Materials Informatics

 22 25  0  0  0  0  0  0  0  0999 V2000
    1.3856    2.4000    0.0000 O   0  0  0  0  0  0  0  0  0  0  0  0
    1.3856    0.8000    0.0000 C   0  0  0  0  0  0  0  0  0  0  0  0
    0.0000    0.0000    0.0000 C   0  0  0  0  0  0  0  0  0  0  0  0
    0.0000   -1.6000    0.0000 C   0  0  0  0  0  0  0  0  0  0  0  0
   -1.5217   -2.0944    0.0000 N   0  0  0  0  0  0  0  0  0  0  0  0
   -2.0161   -3.6161    0.0000 C   0  0  0  0  0  0  0  0  0  0  0  0
   -2.4621   -0.8000    0.0000 C   0  0  0  0  0  0  0  0  0  0  0  0
   -4.0534   -0.6328    0.0000 C   0  0  0  0  0  0  0  0  0  0  0  0
   -4.7042    0.8289    0.0000 C   0  0  0  0  0  0  0  0  0  0  0  0
   -3.7637    2.1233    0.0000 C   0  0  0  0  0  0  0  0  0  0  0  0
   -2.1725    1.9561    0.0000 C   0  0  0  0  0  0  0  0  0  0  0  0
   -1.5217    0.4944    0.0000 C   0  0  0  0  0  0  0  0  0  0  0  0
    1.3856   -2.4000    0.0000 C   0  0  0  0  0  0  0  0  0  0  0  0
    2.7713   -1.6000    0.0000 C   0  0  0  0  0  0  0  0  0  0  0  0
    2.7713    0.0000    0.0000 C   0  0  0  0  0  0  0  0  0  0  0  0
    4.1569    0.8000    0.0000 C   0  0  0  0  0  0  0  0  0  0  0  0
    5.5426    0.0000    0.0000 N   0  0  0  0  0  0  0  0  0  0  0  0
    5.7098   -1.5912    0.0000 C   0  0  0  0  0  0  0  0  0  0  0  0
    7.2748   -1.9239    0.0000 C   0  0  0  0  0  0  0  0  0  0  0  0
    8.0748   -0.5383    0.0000 N   0  0  0  0  0  0  0  0  0  0  0  0
    7.0042    0.6508    0.0000 C   0  0  0  0  0  0  0  0  0  0  0  0
    7.3369    2.2158    0.0000 C   0  0  0  0  0  0  0  0  0  0  0  0
  1  2  2  0  0  0  0
  2  3  1  0  0  0  0
  2 15  1  0  0  0  0
  3  4  2  0  0  0  0
  3 12  1  0  0  0  0
  4  5  1  0  0  0  0
  4 13  1  0  0  0  0
  5  6  1  0  0  0  0
  5  7  1  0  0  0  0
  7  8  1  0  0  0  0
  7 12  2  0  0  0  0
  8  9  2  0  0  0  0
  9 10  1  0  0  0  0
 10 11  2  0  0  0  0
 11 12  1  0  0  0  0
 13 14  1  0  0  0  0
 14 15  1  0  0  0  0
 15 16  1  1  0  0  0
 16 17  1  0  0  0  0
 17 18  1  0  0  0  0
 17 21  1  0  0  0  0
 18 19  2  0  0  0  0
 19 20  1  0  0  0  0
 20 21  2  0  0  0  0
 21 22  1  0  0  0  0
M  END
> <Acceptable>
false

> <IC50>
0.81

$$$$

Generated by Molecular Materials Informatics

 28 30  0  0  0  0  0  0  0  0999 V2000
   -4.1569    2.4000    0.0000 O   0  0  0  0  0  0  0  0  0  0  0  0
   -2.7713    1.6000    0.0000 C   0  0  0  0  0  0  0  0  0  0  0  0
   -1.3856    2.4000    0.0000 N   0  0  0  0  0  0  0  0  0  0  0  0
    0.0000    1.6000    0.0000 C   0  0  0  0  0  0  0  0  0  0  0  0
    1.3856    2.4000    0.0000 C   0  0  0  0  0  0  0  0  0  0  0  0
    2.7713    1.6000    0.0000 C   0  0  0  0  0  0  0  0  0  0  0  0
    2.7713    0.0000    0.0000 C   0  0  0  0  0  0  0  0  0  0  0  0
    4.1569   -0.8000    0.0000 O   0  0  0  0  0  0  0  0  0  0  0  0
    5.5426    0.0000    0.0000 C   0  0  0  0  0  0  0  0  0  0  0  0
    6.9282   -0.8000    0.0000 C   0  0  0  0  0  0  0  0  0  0  0  0
    6.9282   -2.4000    0.0000 O   0  0  0  0  0  0  0  0  0  0  0  0
    8.3138    0.0000    0.0000 C   0  0  0  0  0  0  0  0  0  0  0  0
    9.6995   -0.8000    0.0000 N   0  0  0  0  0  0  0  0  0  0  0  0
   11.0851    0.0000    0.0000 C   0  0  0  0  0  0  0  0  0  0  0  0
   12.4708   -0.8000    0.0000 C   0  0  0  0  0  0  0  0  0  0  0  0
   13.8564    0.0000    0.0000 C   0  0  0  0  0  0  0  0  0  0  0  0
   15.2420   -0.8000    0.0000 C   0  0  0  0  0  0  0  0  0  0  0  0
   15.2420   -2.4000    0.0000 C   0  0  0  0  0  0  0  0  0  0  0  0
   16.6277   -3.2000    0.0000 O   0  0  0  0  0  0  0  0  0  0  0  0
   18.0133   -2.4000    0.0000 C   0  0  0  0  0  0  0  0  0  0  0  0
   13.8564   -3.2000    0.0000 C   0  0  0  0  0  0  0  0  0  0  0  0
   13.8564   -4.8000    0.0000 O   0  0  0  0  0  0  0  0  0  0  0  0
   12.4708   -5.6000    0.0000 C   0  0  0  0  0  0  0  0  0  0  0  0
   12.4708   -2.4000    0.0000 C   0  0  0  0  0  0  0  0  0  0  0  0
    1.3856   -0.8000    0.0000 C   0  0  0  0  0  0  0  0  0  0  0  0
    0.0000    0.0000    0.0000 C   0  0  0  0  0  0  0  0  0  0  0  0
   -1.3856   -0.8000    0.0000 C   0  0  0  0  0  0  0  0  0  0  0  0
   -2.7713    0.0000    0.0000 C   0  0  0  0  0  0  0  0  0  0  0  0
  1  2  2  0  0  0  0
  2  3  1  0  0  0  0
  2 28  1  0  0  0  0
  3  4  1  0  0  0  0
  4  5  1  0  0  0  0
  4 26  2  0  0  0  0
  5  6  2  0  0  0  0
  6  7  1  0  0  0  0
  7  8  1  0  0  0  0
  7 25  2  0  0  0  0
  8  9  1  0  0  0  0
  9 10  1  0  0  0  0
 10 11  1  1  0  0  0
 10 12  1  0  0  0  0
 12 13  1  0  0  0  0
 13 14  1  0  0  0  0
 14 15  1  0  0  0  0
 15 16  1  0  0  0  0
 15 24  2  0  0  0  0
 16 17  2  0  0  0  0
 17 18  1  0  0  0  0
 18 19  1  0  0  0  0
 18 21  2  0  0  0  0
 19 20  1  0  0  0  0
 21 22  1  0  0  0  0
 21 24  1  0  0  0  0
 22 23  1  0  0  0  0
 25 26  1  0  0  0  0
 26 27  1  0  0  0  0
 27 28  2  0  0  0  0
M  END
> <Acceptable>
false

> <IC50>
0.955

$$$$

Generated by Molecular Materials Informatics

 35 35  0  0  0  0  0  0  0  0999 V2000
   -2.4847    9.2729    0.0000 O   0  0  0  0  0  0  0  0  0  0  0  0
   -3.6160    8.1415    0.0000 C   0  0  0  0  0  0  0  0  0  0  0  0
   -3.2019    6.5960    0.0000 N   0  0  0  0  0  0  0  0  0  0  0  0
   -4.3333    5.4647    0.0000 C   0  0  0  0  0  0  0  0  0  0  0  0
   -5.8788    5.8788    0.0000 C   0  0  0  0  0  0  0  0  0  0  0  0
   -6.2929    7.4243    0.0000 C   0  0  0  0  0  0  0  0  0  0  0  0
   -5.1615    8.5556    0.0000 C   0  0  0  0  0  0  0  0  0  0  0  0
   -7.8384    7.8384    0.0000 C   0  0  0  0  0  0  0  0  0  0  0  0
   -3.9192    3.9192    0.0000 C   0  0  0  0  0  0  0  0  0  0  0  0
   -5.0506    2.7878    0.0000 O   0  0  0  0  0  0  0  0  0  0  0  0
   -2.3737    3.5051    0.0000 O   0  0  0  0  0  0  0  0  0  0  0  0
   -1.9596    1.9596    0.0000 C   0  0  0  0  0  0  0  0  0  0  0  0
   -3.0910    0.8282    0.0000 C   0  0  0  0  0  0  0  0  0  0  0  0
   -4.6364    1.2423    0.0000 C   0  0  0  0  0  0  0  0  0  0  0  0
   -5.7678    0.1110    0.0000 C   0  0  0  0  0  0  0  0  0  0  0  0
   -7.3133    0.5251    0.0000 C   0  0  0  0  0  0  0  0  0  0  0  0
   -8.4447   -0.6063    0.0000 C   0  0  0  0  0  0  0  0  0  0  0  0
   -9.9901   -0.1922    0.0000 C   0  0  0  0  0  0  0  0  0  0  0  0
  -11.1215   -1.3236    0.0000 C   0  0  0  0  0  0  0  0  0  0  0  0
  -12.6670   -0.9094    0.0000 C   0  0  0  0  0  0  0  0  0  0  0  0
  -13.7984   -2.0408    0.0000 C   0  0  0  0  0  0  0  0  0  0  0  0
  -15.3439   -1.6267    0.0000 C   0  0  0  0  0  0  0  0  0  0  0  0
  -16.4752   -2.7581    0.0000 C   0  0  0  0  0  0  0  0  0  0  0  0
   -0.4141    1.5455    0.0000 C   0  0  0  0  0  0  0  0  0  0  0  0
    0.0000    0.0000    0.0000 C   0  0  0  0  0  0  0  0  0  0  0  0
   -0.8000   -1.3856    0.0000 O   0  0  0  0  0  0  0  0  0  0  0  0
    0.5856   -2.1856    0.0000 C   0  0  0  0  0  0  0  0  0  0  0  0
    0.9998   -3.7311    0.0000 O   0  0  0  0  0  0  0  0  0  0  0  0
    1.3856   -0.8000    0.0000 C   0  0  0  0  0  0  0  0  0  0  0  0
    2.9311   -0.3859    0.0000 C   0  0  0  0  0  0  0  0  0  0  0  0
    4.0625   -1.5173    0.0000 C   0  0  0  0  0  0  0  0  0  0  0  0
    5.6080   -1.1032    0.0000 C   0  0  0  0  0  0  0  0  0  0  0  0
    6.7393   -2.2345    0.0000 C   0  0  0  0  0  0  0  0  0  0  0  0
    8.2848   -1.8204    0.0000 C   0  0  0  0  0  0  0  0  0  0  0  0
    9.4162   -2.9518    0.0000 C   0  0  0  0  0  0  0  0  0  0  0  0
  1  2  2  0  0  0  0
  2  3  1  0  0  0  0
  3  4  1  0  0  0  0
  4  5  1  0  0  0  0
  4  9  1  6  0  0  0
  5  6  1  0  0  0  0
  6  7  1  0  0  0  0
  6  8  1  0  0  0  0
  9 10  2  0  0  0  0
  9 11  1  0  0  0  0
 11 12  1  0  0  0  0
 12 13  1  0  0  0  0
 12 24  1  6  0  0  0
 13 14  1  0  0  0  0
 14 15  1  0  0  0  0
 15 16  1  0  0  0  0
 16 17  1  0  0  0  0
 17 18  1  0  0  0  0
 18 19  1  0  0  0  0
 19 20  1  0  0  0  0
 20 21  1  0  0  0  0
 21 22  1  0  0  0  0
 22 23  1  0  0  0  0
 25 24  1  1  0  0  0
 25 26  1  0  0  0  0
 25 29  1  0  0  0  0
 26 27  1  0  0  0  0
 27 28  2  0  0  0  0
 27 29  1  0  0  0  0
 29 30  1  6  0  0  0
 30 31  1  0  0  0  0
 31 32  1  0  0  0  0
 32 33  1  0  0  0  0
 33 34  1  0  0  0  0
 34 35  1  0  0  0  0
M  END
> <Acceptable>
true

> <IC50>
N/A

$$$$

Generated by Molecular Materials Informatics

 20 21  0  0  0  0  0  0  0  0999 V2000
   -1.3856   -0.8000    0.0000 O   0  0  0  0  0  0  0  0  0  0  0  0
   -2.7713    0.0000    0.0000 C   0  0  0  0  0  0  0  0  0  0  0  0
   -4.1569   -0.8000    0.0000 C   0  0  0  0  0  0  0  0  0  0  0  0
   -5.5426    0.0000    0.0000 N   0  0  0  0  0  0  0  0  0  0  0  0
   -5.5426    1.6000    0.0000 C   0  0  0  0  0  0  0  0  0  0  0  0
   -6.9282   -0.8000    0.0000 C   0  0  0  0  0  0  0  0  0  0  0  0
    0.0000    0.0000    0.0000 C   0  0  0  0  0  0  0  0  0  0  0  0
    0.0000    1.6000    0.0000 C   0  0  0  0  0  0  0  0  0  0  0  0
   -1.3856    2.4000    0.0000 C   0  0  0  0  0  0  0  0  0  0  0  0
   -1.3856    4.0000    0.0000 C   0  0  0  0  0  0  0  0  0  0  0  0
    0.0000    4.8000    0.0000 C   0  0  0  0  0  0  0  0  0  0  0  0
    1.3856    4.0000    0.0000 C   0  0  0  0  0  0  0  0  0  0  0  0
    1.3856    2.4000    0.0000 C   0  0  0  0  0  0  0  0  0  0  0  0
    1.3856   -0.8000    0.0000 C   0  0  0  0  0  0  0  0  0  0  0  0
    2.7713    0.0000    0.0000 C   0  0  0  0  0  0  0  0  0  0  0  0
    4.1569   -0.8000    0.0000 C   0  0  0  0  0  0  0  0  0  0  0  0
    4.1569   -2.4000    0.0000 C   0  0  0  0  0  0  0  0  0  0  0  0
    2.7713   -3.2000    0.0000 C   0  0  0  0  0  0  0  0  0  0  0  0
    1.3856   -2.4000    0.0000 C   0  0  0  0  0  0  0  0  0  0  0  0
    0.0000   -3.2000    0.0000 C   0  0  0  0  0  0  0  0  0  0  0  0
  1  2  1  0  0  0  0
  1  7  1  0  0  0  0
  2  3  1  0  0  0  0
  3  4  1  0  0  0  0
  4  5  1  0  0  0  0
  4  6  1  0  0  0  0
  7  8  1  6  0  0  0
  7 14  1  0  0  0  0
  8  9  1  0  0  0  0
  8 13  2  0  0  0  0
  9 10  2  0  0  0  0
 10 11  1  0  0  0  0
 11 12  2  0  0  0  0
 12 13  1  0  0  0  0
 14 15  1  0  0  0  0
 14 19  2  0  0  0  0
 15 16  2  0  0  0  0
 16 17  1  0  0  0  0
 17 18  2  0  0  0  0
 18 19  1  0  0  0  0
 19 20  1  0  0  0  0
M  END
> <Acceptable>
false

> <IC50>
0.85

$$$$

Generated by Molecular Materials Informatics

 41 46  0  0  0  0  0  0  0  0999 V2000
   -3.3492   -2.8473    0.0000 O   0  0  0  0  0  0  0  0  0  0  0  0
    1.6000   -2.7713    0.0000 O   0  0  0  0  0  0  0  0  0  0  0  0
   -1.6000    2.7713    0.0000 O   0  0  0  0  0  0  0  0  0  0  0  0
    0.9478    2.6042    0.0000 O   0  0  0  0  0  0  0  0  0  0  0  0
    0.0000    2.7713    0.0000 O   0  0  0  0  0  0  0  0  0  0  0  0
    4.8000    0.0000    0.0000 O   0  0  0  0  0  0  0  0  0  0  0  0
   -8.8485    2.9800    0.0000 O   0  0  0  0  0  0  0  0  0  0  0  0
    7.2000    1.3856    0.0000 O   0  0  0  0  0  0  0  0  0  0  0  0
  -11.5103    1.9582    0.0000 O   0  0  0  0  0  0  0  0  0  0  0  0
    3.2000    2.7713    0.0000 O   0  0  0  0  0  0  0  0  0  0  0  0
    4.8000    5.5426    0.0000 O   0  0  0  0  0  0  0  0  0  0  0  0
    8.0000    5.5426    0.0000 O   0  0  0  0  0  0  0  0  0  0  0  0
   -1.6000    0.0000    0.0000 C   0  0  0  0  0  0  0  0  0  0  0  0
   -2.4000   -1.3856    0.0000 C   0  0  0  0  0  0  0  0  0  0  0  0
   -4.0000   -1.3856    0.0000 C   0  0  0  0  0  0  0  0  0  0  0  0
   -4.8000    0.0000    0.0000 C   0  0  0  0  0  0  0  0  0  0  0  0
    0.0000    0.0000    0.0000 C   0  0  0  0  0  0  0  0  0  0  0  0
    0.8000   -1.3856    0.0000 C   0  0  0  0  0  0  0  0  0  0  0  0
   -2.4000    1.3856    0.0000 C   0  0  0  0  0  0  0  0  0  0  0  0
   -4.0000    1.3856    0.0000 C   0  0  0  0  0  0  0  0  0  0  0  0
   -6.3650   -0.3327    0.0000 C   0  0  0  0  0  0  0  0  0  0  0  0
   -1.6000   -2.7713    0.0000 C   0  0  0  0  0  0  0  0  0  0  0  0
   -5.0706   -2.5747    0.0000 C   0  0  0  0  0  0  0  0  0  0  0  0
    0.0000   -2.7713    0.0000 C   0  0  0  0  0  0  0  0  0  0  0  0
    0.8000    1.3856    0.0000 C   0  0  0  0  0  0  0  0  0  0  0  0
   -6.5323   -1.9239    0.0000 C   0  0  0  0  0  0  0  0  0  0  0  0
    2.4000   -1.3856    0.0000 C   0  0  0  0  0  0  0  0  0  0  0  0
   -0.2778    1.5757    0.0000 C   0  0  0  0  0  0  0  0  0  0  0  0
   -5.7405    1.2944    0.0000 C   0  0  0  0  0  0  0  0  0  0  0  0
    2.4000    1.3856    0.0000 C   0  0  0  0  0  0  0  0  0  0  0  0
    3.2000    0.0000    0.0000 C   0  0  0  0  0  0  0  0  0  0  0  0
   -7.5541    0.7380    0.0000 C   0  0  0  0  0  0  0  0  0  0  0  0
   -7.3868    2.3292    0.0000 C   0  0  0  0  0  0  0  0  0  0  0  0
   -9.1191    0.4053    0.0000 C   0  0  0  0  0  0  0  0  0  0  0  0
    5.6000    1.3856    0.0000 C   0  0  0  0  0  0  0  0  0  0  0  0
   -9.9191    1.7909    0.0000 C   0  0  0  0  0  0  0  0  0  0  0  0
    4.8000    2.7713    0.0000 C   0  0  0  0  0  0  0  0  0  0  0  0
    5.6000    4.1569    0.0000 C   0  0  0  0  0  0  0  0  0  0  0  0
    8.0000    2.7713    0.0000 C   0  0  0  0  0  0  0  0  0  0  0  0
    7.2000    4.1569    0.0000 C   0  0  0  0  0  0  0  0  0  0  0  0
    9.6000    2.7713    0.0000 C   0  0  0  0  0  0  0  0  0  0  0  0
 15  1  1  1  0  0  0
 18  2  1  6  0  0  0
 19  3  1  1  0  0  0
 25  4  1  1  0  0  0
  5 28  1  0  0  0  0
 31  6  1  1  0  0  0
 35  6  1  6  0  0  0
  7 33  1  0  0  0  0
  7 36  1  0  0  0  0
  8 35  1  0  0  0  0
  8 39  1  0  0  0  0
  9 36  2  0  0  0  0
 37 10  1  1  0  0  0
 38 11  1  1  0  0  0
 40 12  1  6  0  0  0
 13 14  1  0  0  0  0
 13 17  1  0  0  0  0
 13 19  1  0  0  0  0
 14 15  1  0  0  0  0
 14 22  1  1  0  0  0
 15 16  1  0  0  0  0
 15 23  1  0  0  0  0
 16 20  1  0  0  0  0
 16 21  1  0  0  0  0
 16 29  1  1  0  0  0
 17 18  1  0  0  0  0
 17 25  1  0  0  0  0
 17 28  1  1  0  0  0
 18 24  1  0  0  0  0
 18 27  1  0  0  0  0
 19 20  1  0  0  0  0
 21 26  1  0  0  0  0
 21 32  1  6  0  0  0
 22 24  1  0  0  0  0
 23 26  1  0  0  0  0
 25 30  1  0  0  0  0
 27 31  1  0  0  0  0
 30 31  1  0  0  0  0
 32 33  1  0  0  0  0
 32 34  2  0  0  0  0
 34 36  1  0  0  0  0
 35 37  1  0  0  0  0
 37 38  1  0  0  0  0
 38 40  1  0  0  0  0
 39 40  1  0  0  0  0
 39 41  1  1  0  0  0
M  END
> <Acceptable>
false

> <IC50>
0.0152

$$$$

Generated by Molecular Materials Informatics

 22 24  0  0  0  0  0  0  0  0999 V2000
   -6.9597    2.2229    0.0000 O   0  0  0  0  0  0  0  0  0  0  0  0
   -6.7924    0.6317    0.0000 C   0  0  0  0  0  0  0  0  0  0  0  0
   -8.0869   -0.3087    0.0000 O   0  0  0  0  0  0  0  0  0  0  0  0
   -5.3308   -0.0191    0.0000 C   0  0  0  0  0  0  0  0  0  0  0  0
   -4.0363    0.9214    0.0000 C   0  0  0  0  0  0  0  0  0  0  0  0
   -2.5747    0.2706    0.0000 C   0  0  0  0  0  0  0  0  0  0  0  0
   -1.1890    1.0706    0.0000 O   0  0  0  0  0  0  0  0  0  0  0  0
    0.0000    0.0000    0.0000 C   0  0  0  0  0  0  0  0  0  0  0  0
    1.5650    0.3327    0.0000 C   0  0  0  0  0  0  0  0  0  0  0  0
    2.0595    1.8543    0.0000 C   0  0  0  0  0  0  0  0  0  0  0  0
    3.6245    2.1870    0.0000 C   0  0  0  0  0  0  0  0  0  0  0  0
    4.6951    0.9980    0.0000 C   0  0  0  0  0  0  0  0  0  0  0  0
    4.2007   -0.5237    0.0000 C   0  0  0  0  0  0  0  0  0  0  0  0
    2.6356   -0.8564    0.0000 C   0  0  0  0  0  0  0  0  0  0  0  0
   -0.6508   -1.4617    0.0000 C   0  0  0  0  0  0  0  0  0  0  0  0
   -2.2420   -1.2944    0.0000 N   0  0  0  0  0  0  0  0  0  0  0  0
    0.1492   -2.8473    0.0000 C   0  0  0  0  0  0  0  0  0  0  0  0
    1.7492   -2.8473    0.0000 C   0  0  0  0  0  0  0  0  0  0  0  0
    2.5492   -4.2330    0.0000 C   0  0  0  0  0  0  0  0  0  0  0  0
    1.7492   -5.6186    0.0000 C   0  0  0  0  0  0  0  0  0  0  0  0
    0.1492   -5.6186    0.0000 C   0  0  0  0  0  0  0  0  0  0  0  0
   -0.6508   -4.2330    0.0000 C   0  0  0  0  0  0  0  0  0  0  0  0
  1  2  2  0  0  0  0
  2  3  1  0  0  0  0
  2  4  1  0  0  0  0
  4  5  1  0  0  0  0
  5  6  1  0  0  0  0
  6  7  1  0  0  0  0
  6 16  2  0  0  0  0
  7  8  1  0  0  0  0
  8  9  1  0  0  0  0
  8 15  2  0  0  0  0
  9 10  1  0  0  0  0
  9 14  2  0  0  0  0
 10 11  2  0  0  0  0
 11 12  1  0  0  0  0
 12 13  2  0  0  0  0
 13 14  1  0  0  0  0
 15 16  1  0  0  0  0
 15 17  1  0  0  0  0
 17 18  1  0  0  0  0
 17 22  2  0  0  0  0
 18 19  2  0  0  0  0
 19 20  1  0  0  0  0
 20 21  2  0  0  0  0
 21 22  1  0  0  0  0
M  END
> <Acceptable>
true

> <IC50>
N/A

$$$$

Generated by Molecular Materials Informatics

 32 36  0  0  0  0  0  0  0  0999 V2000
    0.0000    0.0000    0.0000 C   0  0  0  0  0  0  0  0  0  0  0  0
    1.5217   -0.4944    0.0000 N   0  0  0  0  0  0  0  0  0  0  0  0
   -0.3327    1.5650    0.0000 C   0  0  0  0  0  0  0  0  0  0  0  0
   -1.1890   -1.0706    0.0000 C   0  0  0  0  0  0  0  0  0  0  0  0
    1.8544   -2.0595    0.0000 C   0  0  0  0  0  0  0  0  0  0  0  0
    2.7107    0.5762    0.0000 C   0  0  0  0  0  0  0  0  0  0  0  0
    0.8564    2.6356    0.0000 C   0  0  0  0  0  0  0  0  0  0  0  0
   -1.8544    2.0595    0.0000 C   0  0  0  0  0  0  0  0  0  0  0  0
   -2.7107   -0.5762    0.0000 C   0  0  0  0  0  0  0  0  0  0  0  0
   -0.8564   -2.6356    0.0000 C   0  0  0  0  0  0  0  0  0  0  0  0
    3.3760   -2.5539    0.0000 C   0  0  0  0  0  0  0  0  0  0  0  0
    4.2324    0.0818    0.0000 C   0  0  0  0  0  0  0  0  0  0  0  0
    0.5237    4.2007    0.0000 C   0  0  0  0  0  0  0  0  0  0  0  0
   -2.1870    3.6245    0.0000 C   0  0  0  0  0  0  0  0  0  0  0  0
   -3.8998   -1.6468    0.0000 C   0  0  0  0  0  0  0  0  0  0  0  0
   -2.0454   -3.7063    0.0000 C   0  0  0  0  0  0  0  0  0  0  0  0
    4.5651   -1.4833    0.0000 N   0  0  0  0  0  0  0  0  0  0  0  0
   -0.9980    4.6951    0.0000 C   0  0  0  0  0  0  0  0  0  0  0  0
   -3.5671   -3.2118    0.0000 C   0  0  0  0  0  0  0  0  0  0  0  0
    6.0868   -1.9777    0.0000 C   0  0  0  0  0  0  0  0  0  0  0  0
    7.2758   -0.9071    0.0000 C   0  0  0  0  0  0  0  0  0  0  0  0
    8.7975   -1.4015    0.0000 C   0  0  0  0  0  0  0  0  0  0  0  0
    9.9865   -0.3309    0.0000 N   0  0  0  0  0  0  0  0  0  0  0  0
   11.5516   -0.6636    0.0000 C   0  0  0  0  0  0  0  0  0  0  0  0
    9.8193    1.2603    0.0000 C   0  0  0  0  0  0  0  0  0  0  0  0
   12.3516    0.7221    0.0000 C   0  0  0  0  0  0  0  0  0  0  0  0
   12.3516   -2.0492    0.0000 C   0  0  0  0  0  0  0  0  0  0  0  0
   11.2809    1.9111    0.0000 N   0  0  0  0  0  0  0  0  0  0  0  0
    8.4336    2.0603    0.0000 O   0  0  0  0  0  0  0  0  0  0  0  0
   13.9516    0.7221    0.0000 C   0  0  0  0  0  0  0  0  0  0  0  0
   13.9516   -2.0492    0.0000 C   0  0  0  0  0  0  0  0  0  0  0  0
   14.7516   -0.6636    0.0000 C   0  0  0  0  0  0  0  0  0  0  0  0
  2  1  1  1  0  0  0
  1  3  1  0  0  0  0
  1  4  1  0  0  0  0
  2  5  1  0  0  0  0
  2  6  1  0  0  0  0
  3  7  2  0  0  0  0
  3  8  1  0  0  0  0
  4  9  2  0  0  0  0
  4 10  1  0  0  0  0
  5 11  1  0  0  0  0
  6 12  1  0  0  0  0
  7 13  1  0  0  0  0
  8 14  2  0  0  0  0
  9 15  1  0  0  0  0
 10 16  2  0  0  0  0
 11 17  1  0  0  0  0
 12 17  1  0  0  0  0
 13 18  2  0  0  0  0
 14 18  1  0  0  0  0
 15 19  2  0  0  0  0
 16 19  1  0  0  0  0
 17 20  1  6  0  0  0
 20 21  1  0  0  0  0
 21 22  1  0  0  0  0
 22 23  1  0  0  0  0
 23 24  1  0  0  0  0
 23 25  1  0  0  0  0
 24 26  2  0  0  0  0
 24 27  1  0  0  0  0
 25 28  1  0  0  0  0
 25 29  2  0  0  0  0
 26 28  1  0  0  0  0
 26 30  1  0  0  0  0
 27 31  2  0  0  0  0
 30 32  2  0  0  0  0
 31 32  1  0  0  0  0
M  END
> <Acceptable>
false

> <IC50>
0.355

$$$$

Generated by Molecular Materials Informatics

 19 21  0  0  0  0  0  0  0  0999 V2000
   -2.8859    4.2864    0.0000 O   0  0  0  0  0  0  0  0  0  0  0  0
   -1.7976    3.1135    0.0000 C   0  0  0  0  0  0  0  0  0  0  0  0
   -0.2687    3.5851    0.0000 C   0  0  0  0  0  0  0  0  0  0  0  0
    1.0533    2.6838    0.0000 C   0  0  0  0  0  0  0  0  0  0  0  0
    2.3753    3.5851    0.0000 C   0  0  0  0  0  0  0  0  0  0  0  0
    3.8168    2.8909    0.0000 C   0  0  0  0  0  0  0  0  0  0  0  0
    3.9364    1.2954    0.0000 C   0  0  0  0  0  0  0  0  0  0  0  0
    2.6144    0.3941    0.0000 C   0  0  0  0  0  0  0  0  0  0  0  0
    1.1729    1.0883    0.0000 C   0  0  0  0  0  0  0  0  0  0  0  0
    0.0000    0.0000    0.0000 N   0  0  0  0  0  0  0  0  0  0  0  0
   -1.5821    0.2385    0.0000 C   0  0  0  0  0  0  0  0  0  0  0  0
   -2.3821   -1.1472    0.0000 C   0  0  0  0  0  0  0  0  0  0  0  0
   -3.9821   -1.1472    0.0000 C   0  0  0  0  0  0  0  0  0  0  0  0
   -4.7821    0.2385    0.0000 C   0  0  0  0  0  0  0  0  0  0  0  0
   -3.9821    1.6241    0.0000 C   0  0  0  0  0  0  0  0  0  0  0  0
   -2.3821    1.6241    0.0000 C   0  0  0  0  0  0  0  0  0  0  0  0
    0.4716   -1.5289    0.0000 C   0  0  0  0  0  0  0  0  0  0  0  0
   -0.6167   -2.7018    0.0000 O   0  0  0  0  0  0  0  0  0  0  0  0
    2.0315   -1.8849    0.0000 N   0  0  0  0  0  0  0  0  0  0  0  0
  1  2  2  0  0  0  0
  2  3  1  0  0  0  0
  2 16  1  0  0  0  0
  3  4  1  0  0  0  0
  4  5  1  0  0  0  0
  4  9  2  0  0  0  0
  5  6  2  0  0  0  0
  6  7  1  0  0  0  0
  7  8  2  0  0  0  0
  8  9  1  0  0  0  0
  9 10  1  0  0  0  0
 10 11  1  0  0  0  0
 10 17  1  0  0  0  0
 11 12  1  0  0  0  0
 11 16  2  0  0  0  0
 12 13  2  0  0  0  0
 13 14  1  0  0  0  0
 14 15  2  0  0  0  0
 15 16  1  0  0  0  0
 17 18  2  0  0  0  0
 17 19  1  0  0  0  0
M  END
> <Acceptable>
true

> <IC50>
N/A

$$$$

Generated by Molecular Materials Informatics

 26 27  0  0  0  0  0  0  0  0999 V2000
   -1.3856    2.4000    0.0000 O   0  0  0  0  0  0  0  0  0  0  0  0
   -1.3856    0.8000    0.0000 C   0  0  0  0  0  0  0  0  0  0  0  0
   -2.7713    0.0000    0.0000 O   0  0  0  0  0  0  0  0  0  0  0  0
   -4.1569    0.8000    0.0000 C   0  0  0  0  0  0  0  0  0  0  0  0
   -5.5426    0.0000    0.0000 C   0  0  0  0  0  0  0  0  0  0  0  0
   -6.9282   -0.8000    0.0000 C   0  0  0  0  0  0  0  0  0  0  0  0
   -8.3138   -1.6000    0.0000 C   0  0  0  0  0  0  0  0  0  0  0  0
   -9.6995   -0.8000    0.0000 N   0  0  0  0  0  0  0  0  0  0  0  0
   -9.6995    0.8000    0.0000 C   0  0  0  0  0  0  0  0  0  0  0  0
  -11.0851    1.6000    0.0000 C   0  0  0  0  0  0  0  0  0  0  0  0
  -11.0851   -1.6000    0.0000 C   0  0  0  0  0  0  0  0  0  0  0  0
  -12.4708   -0.8000    0.0000 C   0  0  0  0  0  0  0  0  0  0  0  0
    0.0000    0.0000    0.0000 C   0  0  0  0  0  0  0  0  0  0  0  0
    1.3856   -0.8000    0.0000 O   0  0  0  0  0  0  0  0  0  0  0  0
   -0.8000   -1.3856    0.0000 C   0  0  0  0  0  0  0  0  0  0  0  0
   -2.4000   -1.3856    0.0000 C   0  0  0  0  0  0  0  0  0  0  0  0
   -3.2000   -2.7713    0.0000 C   0  0  0  0  0  0  0  0  0  0  0  0
   -2.4000   -4.1569    0.0000 C   0  0  0  0  0  0  0  0  0  0  0  0
   -0.8000   -4.1569    0.0000 C   0  0  0  0  0  0  0  0  0  0  0  0
    0.0000   -2.7713    0.0000 C   0  0  0  0  0  0  0  0  0  0  0  0
    0.8000    1.3856    0.0000 C   0  0  0  0  0  0  0  0  0  0  0  0
    2.4000    1.3856    0.0000 C   0  0  0  0  0  0  0  0  0  0  0  0
    3.2000    2.7713    0.0000 C   0  0  0  0  0  0  0  0  0  0  0  0
    2.4000    4.1569    0.0000 C   0  0  0  0  0  0  0  0  0  0  0  0
    0.8000    4.1569    0.0000 C   0  0  0  0  0  0  0  0  0  0  0  0
    0.0000    2.7713    0.0000 C   0  0  0  0  0  0  0  0  0  0  0  0
  1  2  2  0  0  0  0
  2  3  1  0  0  0  0
  2 13  1  0  0  0  0
  3  4  1  0  0  0  0
  4  5  1  0  0  0  0
  5  6  3  0  0  0  0
  6  7  1  0  0  0  0
  7  8  1  0  0  0  0
  8  9  1  0  0  0  0
  8 11  1  0  0  0  0
  9 10  1  0  0  0  0
 11 12  1  0  0  0  0
 13 14  1  1  0  0  0
 13 15  1  0  0  0  0
 13 21  1  0  0  0  0
 15 16  1  0  0  0  0
 15 20  2  0  0  0  0
 16 17  2  0  0  0  0
 17 18  1  0  0  0  0
 18 19  2  0  0  0  0
 19 20  1  0  0  0  0
 21 22  1  0  0  0  0
 21 26  1  0  0  0  0
 22 23  1  0  0  0  0
 23 24  1  0  0  0  0
 24 25  1  0  0  0  0
 25 26  1  0  0  0  0
M  END
> <Acceptable>
false

> <IC50>
25.11

$$$$

Generated by Molecular Materials Informatics

 23 27  0  0  0  0  0  0  0  0999 V2000
   -3.2000    2.7713    0.0000 O   0  0  0  0  0  0  0  0  0  0  0  0
   -2.4000    1.3856    0.0000 C   0  0  0  0  0  0  0  0  0  0  0  0
   -3.2000    0.0000    0.0000 C   0  0  0  0  0  0  0  0  0  0  0  0
   -2.4000   -1.3856    0.0000 C   0  0  0  0  0  0  0  0  0  0  0  0
   -0.8000   -1.3856    0.0000 C   0  0  0  0  0  0  0  0  0  0  0  0
   -1.6000   -2.7713    0.0000 O   0  0  0  0  0  0  0  0  0  0  0  0
    0.0000   -2.7713    0.0000 C   0  0  0  0  0  0  0  0  0  0  0  0
    1.1620   -2.4716    0.0000 N   0  0  0  0  0  0  0  0  0  0  0  0
    2.1827   -3.7037    0.0000 C   0  0  0  0  0  0  0  0  0  0  0  0
    1.6725   -1.3856    0.0000 C   0  0  0  0  0  0  0  0  0  0  0  0
    1.1620   -0.2997    0.0000 C   0  0  0  0  0  0  0  0  0  0  0  0
    0.0000    0.0000    0.0000 C   0  0  0  0  0  0  0  0  0  0  0  0
    1.6000    0.0000    0.0000 C   0  0  0  0  0  0  0  0  0  0  0  0
    2.4000   -1.3856    0.0000 C   0  0  0  0  0  0  0  0  0  0  0  0
    4.0000   -1.3856    0.0000 C   0  0  0  0  0  0  0  0  0  0  0  0
    4.8000    0.0000    0.0000 C   0  0  0  0  0  0  0  0  0  0  0  0
    4.0000    1.3856    0.0000 C   0  0  0  0  0  0  0  0  0  0  0  0
    4.8000    2.7713    0.0000 O   0  0  0  0  0  0  0  0  0  0  0  0
    6.4000    2.7713    0.0000 C   0  0  0  0  0  0  0  0  0  0  0  0
    2.4000    1.3856    0.0000 C   0  0  0  0  0  0  0  0  0  0  0  0
    0.8000    3.1745    0.0000 O   0  0  0  0  0  0  0  0  0  0  0  0
   -0.8000    1.3856    0.0000 C   0  0  0  0  0  0  0  0  0  0  0  0
    1.6000   -2.7713    0.0000 C   0  0  0  0  0  0  0  0  0  0  0  0
  1  2  2  0  0  0  0
  2  3  1  0  0  0  0
  2 22  1  0  0  0  0
  3  4  1  0  0  0  0
  4  5  1  0  0  0  0
  5  6  1  1  0  0  0
  5  7  1  0  0  0  0
  5 12  1  0  0  0  0
  7  8  1  0  0  0  0
  7 23  1  6  0  0  0
  8  9  1  1  0  0  0
  8 10  1  0  0  0  0
 10 11  1  0  0  0  0
 12 11  1  1  0  0  0
 12 13  1  0  0  0  0
 12 22  1  0  0  0  0
 13 14  1  0  0  0  0
 13 20  2  0  0  0  0
 14 15  2  0  0  0  0
 14 23  1  0  0  0  0
 15 16  1  0  0  0  0
 16 17  2  0  0  0  0
 17 18  1  0  0  0  0
 17 20  1  0  0  0  0
 18 19  1  0  0  0  0
 20 21  1  0  0  0  0
 22 21  1  6  0  0  0
M  END
> <Acceptable>
true

> <IC50>
N/A

$$$$

Generated by Molecular Materials Informatics

 31 35  0  0  0  0  0  0  0  0999 V2000
   -3.5671    3.2118    0.0000 F   0  0  0  0  0  0  0  0  0  0  0  0
   -1.5217   -2.0944    0.0000 O   0  0  0  0  0  0  0  0  0  0  0  0
   15.3405   -1.2944    0.0000 O   0  0  0  0  0  0  0  0  0  0  0  0
    9.7405    2.8625    0.0000 O   0  0  0  0  0  0  0  0  0  0  0  0
    5.7405   -1.2944    0.0000 N   0  0  0  0  0  0  0  0  0  0  0  0
   12.1405    1.4769    0.0000 N   0  0  0  0  0  0  0  0  0  0  0  0
    0.0000   -2.5889    0.0000 N   0  0  0  0  0  0  0  0  0  0  0  0
   12.1405   -1.2944    0.0000 N   0  0  0  0  0  0  0  0  0  0  0  0
    2.5405   -1.2944    0.0000 C   0  0  0  0  0  0  0  0  0  0  0  0
    3.3405    0.0912    0.0000 C   0  0  0  0  0  0  0  0  0  0  0  0
    3.3405   -2.6801    0.0000 C   0  0  0  0  0  0  0  0  0  0  0  0
    4.9405    0.0912    0.0000 C   0  0  0  0  0  0  0  0  0  0  0  0
    4.9405   -2.6801    0.0000 C   0  0  0  0  0  0  0  0  0  0  0  0
    7.3405   -1.2944    0.0000 C   0  0  0  0  0  0  0  0  0  0  0  0
    0.9405   -1.2944    0.0000 C   0  0  0  0  0  0  0  0  0  0  0  0
    8.1405    0.0912    0.0000 C   0  0  0  0  0  0  0  0  0  0  0  0
    9.7405    0.0912    0.0000 C   0  0  0  0  0  0  0  0  0  0  0  0
   12.9405    2.8625    0.0000 C   0  0  0  0  0  0  0  0  0  0  0  0
   14.5405    0.0912    0.0000 C   0  0  0  0  0  0  0  0  0  0  0  0
   14.5405    2.8625    0.0000 C   0  0  0  0  0  0  0  0  0  0  0  0
   15.3405    1.4769    0.0000 C   0  0  0  0  0  0  0  0  0  0  0  0
   12.9405    0.0912    0.0000 C   0  0  0  0  0  0  0  0  0  0  0  0
    0.0000    0.0000    0.0000 C   0  0  0  0  0  0  0  0  0  0  0  0
   10.5405    1.4769    0.0000 C   0  0  0  0  0  0  0  0  0  0  0  0
   10.5405   -1.2944    0.0000 C   0  0  0  0  0  0  0  0  0  0  0  0
   -1.5217   -0.4944    0.0000 C   0  0  0  0  0  0  0  0  0  0  0  0
    0.3327    1.5650    0.0000 C   0  0  0  0  0  0  0  0  0  0  0  0
    9.7405   -2.6801    0.0000 C   0  0  0  0  0  0  0  0  0  0  0  0
   -2.7107    0.5762    0.0000 C   0  0  0  0  0  0  0  0  0  0  0  0
   -0.8564    2.6356    0.0000 C   0  0  0  0  0  0  0  0  0  0  0  0
   -2.3781    2.1412    0.0000 C   0  0  0  0  0  0  0  0  0  0  0  0
  1 31  1  0  0  0  0
  2  7  1  0  0  0  0
  2 26  1  0  0  0  0
 19  3  1  6  0  0  0
  4 24  2  0  0  0  0
  5 12  1  0  0  0  0
  5 13  1  0  0  0  0
  5 14  1  1  0  0  0
  6 18  1  0  0  0  0
  6 22  1  0  0  0  0
  6 24  1  0  0  0  0
  7 15  2  0  0  0  0
  8 22  2  0  0  0  0
  8 25  1  0  0  0  0
  9 10  1  0  0  0  0
  9 11  1  0  0  0  0
  9 15  1  6  0  0  0
 10 12  1  0  0  0  0
 11 13  1  0  0  0  0
 14 16  1  0  0  0  0
 15 23  1  0  0  0  0
 16 17  1  0  0  0  0
 17 24  1  0  0  0  0
 17 25  2  0  0  0  0
 18 20  1  0  0  0  0
 19 21  1  0  0  0  0
 19 22  1  0  0  0  0
 20 21  1  0  0  0  0
 23 26  2  0  0  0  0
 23 27  1  0  0  0  0
 25 28  1  0  0  0  0
 26 29  1  0  0  0  0
 27 30  2  0  0  0  0
 29 31  2  0  0  0  0
 30 31  1  0  0  0  0
M  END
> <Acceptable>
false

> <IC50>
1.2

$$$$

Generated by Molecular Materials Informatics

 22 26  0  0  0  0  0  0  0  0999 V2000
   -3.2000    2.7713    0.0000 O   0  0  0  0  0  0  0  0  0  0  0  0
   -7.2000   -1.3856    0.0000 N   0  0  0  0  0  0  0  0  0  0  0  0
   -3.2000    0.0000    0.0000 N   0  0  0  0  0  0  0  0  0  0  0  0
   -5.6000    1.3856    0.0000 C   0  0  0  0  0  0  0  0  0  0  0  0
   -4.8000    0.0000    0.0000 C   0  0  0  0  0  0  0  0  0  0  0  0
   -5.6000   -1.3856    0.0000 C   0  0  0  0  0  0  0  0  0  0  0  0
   -7.2000    1.3856    0.0000 C   0  0  0  0  0  0  0  0  0  0  0  0
   -5.5255    0.1880    0.0000 C   0  0  0  0  0  0  0  0  0  0  0  0
   -8.0000    0.0000    0.0000 C   0  0  0  0  0  0  0  0  0  0  0  0
   -6.1255   -0.8513    0.0000 C   0  0  0  0  0  0  0  0  0  0  0  0
   -0.8000   -1.3856    0.0000 C   0  0  0  0  0  0  0  0  0  0  0  0
   -2.4000   -1.3856    0.0000 C   0  0  0  0  0  0  0  0  0  0  0  0
    0.0000    0.0000    0.0000 C   0  0  0  0  0  0  0  0  0  0  0  0
    0.0000   -2.7713    0.0000 C   0  0  0  0  0  0  0  0  0  0  0  0
   -2.4000    1.3856    0.0000 C   0  0  0  0  0  0  0  0  0  0  0  0
   -0.8000    1.3856    0.0000 C   0  0  0  0  0  0  0  0  0  0  0  0
    1.6000   -2.7713    0.0000 C   0  0  0  0  0  0  0  0  0  0  0  0
    1.6000    0.0000    0.0000 C   0  0  0  0  0  0  0  0  0  0  0  0
    2.4000   -1.3856    0.0000 C   0  0  0  0  0  0  0  0  0  0  0  0
    0.0000    2.7713    0.0000 C   0  0  0  0  0  0  0  0  0  0  0  0
    2.4000    1.3856    0.0000 C   0  0  0  0  0  0  0  0  0  0  0  0
    1.6000    2.7713    0.0000 C   0  0  0  0  0  0  0  0  0  0  0  0
  1 15  2  0  0  0  0
  2  6  1  0  0  0  0
  2  9  1  6  0  0  0
  2 10  1  0  0  0  0
  5  3  1  6  0  0  0
  3 12  1  0  0  0  0
  3 15  1  0  0  0  0
  4  5  1  0  0  0  0
  4  7  1  0  0  0  0
  4  8  1  1  0  0  0
  5  6  1  0  0  0  0
  7  9  1  0  0  0  0
  8 10  1  0  0  0  0
 11 12  1  0  0  0  0
 11 13  1  0  0  0  0
 11 14  1  1  0  0  0
 13 16  2  0  0  0  0
 13 18  1  0  0  0  0
 14 17  1  0  0  0  0
 15 16  1  0  0  0  0
 16 20  1  0  0  0  0
 17 19  1  0  0  0  0
 18 19  1  0  0  0  0
 18 21  2  0  0  0  0
 20 22  2  0  0  0  0
 21 22  1  0  0  0  0
M  END
> <Acceptable>
true

> <IC50>
204

$$$$

Generated by Molecular Materials Informatics

 14 15  0  0  0  0  0  0  0  0999 V2000
   -3.9179    1.3383    0.0000 Br  0  0  0  0  0  0  0  0  0  0  0  0
   -2.5323    0.5383    0.0000 C   0  0  0  0  0  0  0  0  0  0  0  0
   -1.0706    1.1890    0.0000 N   0  0  0  0  0  0  0  0  0  0  0  0
    0.0000    0.0000    0.0000 C   0  0  0  0  0  0  0  0  0  0  0  0
    1.6000    0.0000    0.0000 N   0  0  0  0  0  0  0  0  0  0  0  0
    2.4000    1.3856    0.0000 C   0  0  0  0  0  0  0  0  0  0  0  0
    2.4000   -1.3856    0.0000 C   0  0  0  0  0  0  0  0  0  0  0  0
    4.0000   -1.3856    0.0000 O   0  0  0  0  0  0  0  0  0  0  0  0
    1.6000   -2.7713    0.0000 N   0  0  0  0  0  0  0  0  0  0  0  0
    2.4000   -4.1569    0.0000 C   0  0  0  0  0  0  0  0  0  0  0  0
    0.0000   -2.7713    0.0000 C   0  0  0  0  0  0  0  0  0  0  0  0
   -0.8000   -4.1569    0.0000 O   0  0  0  0  0  0  0  0  0  0  0  0
   -0.8000   -1.3856    0.0000 C   0  0  0  0  0  0  0  0  0  0  0  0
   -2.3650   -1.0530    0.0000 N   0  0  0  0  0  0  0  0  0  0  0  0
  1  2  1  0  0  0  0
  2  3  2  0  0  0  0
  2 14  1  0  0  0  0
  3  4  1  0  0  0  0
  4  5  1  0  0  0  0
  4 13  2  0  0  0  0
  5  6  1  0  0  0  0
  5  7  1  0  0  0  0
  7  8  2  0  0  0  0
  7  9  1  0  0  0  0
  9 10  1  0  0  0  0
  9 11  1  0  0  0  0
 11 12  2  0  0  0  0
 11 13  1  0  0  0  0
 13 14  1  0  0  0  0
M  END
> <Acceptable>
true

> <IC50>
N/A

$$$$

Generated by Molecular Materials Informatics

 26 28  0  0  0  0  0  0  0  0999 V2000
   -4.0621   -0.8000    0.0000 S   0  0  0  0  0  0  0  0  0  0  0  0
   -4.8621    0.5856    0.0000 O   0  0  0  0  0  0  0  0  0  0  0  0
   -4.8621   -2.1856    0.0000 C   0  0  0  0  0  0  0  0  0  0  0  0
   -6.4621   -2.1856    0.0000 C   0  0  0  0  0  0  0  0  0  0  0  0
   -7.2621   -3.5713    0.0000 N   0  0  0  0  0  0  0  0  0  0  0  0
   -8.8621   -3.5713    0.0000 C   0  0  0  0  0  0  0  0  0  0  0  0
   -9.6621   -2.1856    0.0000 C   0  0  0  0  0  0  0  0  0  0  0  0
   -8.8621   -0.8000    0.0000 C   0  0  0  0  0  0  0  0  0  0  0  0
   -9.6621    0.5856    0.0000 O   0  0  0  0  0  0  0  0  0  0  0  0
  -11.2621    0.5856    0.0000 C   0  0  0  0  0  0  0  0  0  0  0  0
   -7.2621   -0.8000    0.0000 C   0  0  0  0  0  0  0  0  0  0  0  0
   -6.4621    0.5856    0.0000 O   0  0  0  0  0  0  0  0  0  0  0  0
   -7.2621    1.9713    0.0000 C   0  0  0  0  0  0  0  0  0  0  0  0
   -2.4621   -0.8000    0.0000 C   0  0  0  0  0  0  0  0  0  0  0  0
   -1.5217    0.4944    0.0000 N   0  0  0  0  0  0  0  0  0  0  0  0
    0.0000    0.0000    0.0000 C   0  0  0  0  0  0  0  0  0  0  0  0
    1.3856    0.8000    0.0000 C   0  0  0  0  0  0  0  0  0  0  0  0
    2.7713    0.0000    0.0000 C   0  0  0  0  0  0  0  0  0  0  0  0
    4.1569    0.8000    0.0000 O   0  0  0  0  0  0  0  0  0  0  0  0
    5.5426    0.0000    0.0000 C   0  0  0  0  0  0  0  0  0  0  0  0
    5.5426   -1.6000    0.0000 F   0  0  0  0  0  0  0  0  0  0  0  0
    6.9282    0.8000    0.0000 F   0  0  0  0  0  0  0  0  0  0  0  0
    2.7713   -1.6000    0.0000 C   0  0  0  0  0  0  0  0  0  0  0  0
    1.3856   -2.4000    0.0000 C   0  0  0  0  0  0  0  0  0  0  0  0
    0.0000   -1.6000    0.0000 C   0  0  0  0  0  0  0  0  0  0  0  0
   -1.5217   -2.0944    0.0000 N   0  0  0  0  0  0  0  0  0  0  0  0
  1  2  1  6  0  0  0
  1  3  1  0  0  0  0
  1 14  1  0  0  0  0
  3  4  1  0  0  0  0
  4  5  1  0  0  0  0
  4 11  2  0  0  0  0
  5  6  2  0  0  0  0
  6  7  1  0  0  0  0
  7  8  2  0  0  0  0
  8  9  1  0  0  0  0
  8 11  1  0  0  0  0
  9 10  1  0  0  0  0
 11 12  1  0  0  0  0
 12 13  1  0  0  0  0
 14 15  2  0  0  0  0
 14 26  1  0  0  0  0
 15 16  1  0  0  0  0
 16 17  1  0  0  0  0
 16 25  2  0  0  0  0
 17 18  2  0  0  0  0
 18 19  1  0  0  0  0
 18 23  1  0  0  0  0
 19 20  1  0  0  0  0
 20 21  1  0  0  0  0
 20 22  1  0  0  0  0
 23 24  2  0  0  0  0
 24 25  1  0  0  0  0
 25 26  1  0  0  0  0
M  END
> <Acceptable>
true

> <IC50>
N/A

$$$$

Generated by Molecular Materials Informatics

 25 27  0  0  0  0  0  0  0  0999 V2000
   -8.8000   -1.3856    0.0000 O   0  0  0  0  0  0  0  0  0  0  0  0
   -9.6000    0.0000    0.0000 C   0  0  0  0  0  0  0  0  0  0  0  0
   -7.2000   -1.3856    0.0000 C   0  0  0  0  0  0  0  0  0  0  0  0
   -6.4000    0.0000    0.0000 C   0  0  0  0  0  0  0  0  0  0  0  0
   -4.8000    0.0000    0.0000 C   0  0  0  0  0  0  0  0  0  0  0  0
   -4.0000   -1.3856    0.0000 C   0  0  0  0  0  0  0  0  0  0  0  0
   -4.8000   -2.7713    0.0000 C   0  0  0  0  0  0  0  0  0  0  0  0
   -6.4000   -2.7713    0.0000 C   0  0  0  0  0  0  0  0  0  0  0  0
   -7.2000   -4.1569    0.0000 O   0  0  0  0  0  0  0  0  0  0  0  0
   -6.4000   -5.5426    0.0000 C   0  0  0  0  0  0  0  0  0  0  0  0
   -2.4000   -1.3856    0.0000 C   0  0  0  0  0  0  0  0  0  0  0  0
   -1.6000    0.0000    0.0000 C   0  0  0  0  0  0  0  0  0  0  0  0
   -2.4000    1.3856    0.0000 N   0  0  0  0  0  0  0  0  0  0  0  0
   -1.6000    2.7713    0.0000 C   0  0  0  0  0  0  0  0  0  0  0  0
    0.0000    2.7713    0.0000 C   0  0  0  0  0  0  0  0  0  0  0  0
    0.8000    1.3856    0.0000 C   0  0  0  0  0  0  0  0  0  0  0  0
    2.4000    1.3856    0.0000 C   0  0  0  0  0  0  0  0  0  0  0  0
    3.2000    0.0000    0.0000 C   0  0  0  0  0  0  0  0  0  0  0  0
    4.8000    0.0000    0.0000 O   0  0  0  0  0  0  0  0  0  0  0  0
    5.6000    1.3856    0.0000 C   0  0  0  0  0  0  0  0  0  0  0  0
    2.4000   -1.3856    0.0000 C   0  0  0  0  0  0  0  0  0  0  0  0
    3.2000   -2.7713    0.0000 O   0  0  0  0  0  0  0  0  0  0  0  0
    2.4000   -4.1569    0.0000 C   0  0  0  0  0  0  0  0  0  0  0  0
    0.8000   -1.3856    0.0000 C   0  0  0  0  0  0  0  0  0  0  0  0
    0.0000    0.0000    0.0000 C   0  0  0  0  0  0  0  0  0  0  0  0
  1  2  1  0  0  0  0
  1  3  1  0  0  0  0
  3  4  1  0  0  0  0
  3  8  2  0  0  0  0
  4  5  2  0  0  0  0
  5  6  1  0  0  0  0
  6  7  2  0  0  0  0
  6 11  1  0  0  0  0
  7  8  1  0  0  0  0
  8  9  1  0  0  0  0
  9 10  1  0  0  0  0
 11 12  1  0  0  0  0
 12 13  1  0  0  0  0
 12 25  2  0  0  0  0
 13 14  2  0  0  0  0
 14 15  1  0  0  0  0
 15 16  2  0  0  0  0
 16 17  1  0  0  0  0
 16 25  1  0  0  0  0
 17 18  2  0  0  0  0
 18 19  1  0  0  0  0
 18 21  1  0  0  0  0
 19 20  1  0  0  0  0
 21 22  1  0  0  0  0
 21 24  2  0  0  0  0
 22 23  1  0  0  0  0
 24 25  1  0  0  0  0
M  END
> <Acceptable>
false

> <IC50>
7.3

$$$$

Generated by Molecular Materials Informatics

 24 27  0  0  0  0  0  0  0  0999 V2000
   -5.5426    3.2000    0.0000 F   0  0  0  0  0  0  0  0  0  0  0  0
   -4.1569    2.4000    0.0000 C   0  0  0  0  0  0  0  0  0  0  0  0
   -2.7713    3.2000    0.0000 C   0  0  0  0  0  0  0  0  0  0  0  0
   -1.3856    2.4000    0.0000 C   0  0  0  0  0  0  0  0  0  0  0  0
   -1.3856    0.8000    0.0000 C   0  0  0  0  0  0  0  0  0  0  0  0
   -2.7713    0.0000    0.0000 C   0  0  0  0  0  0  0  0  0  0  0  0
   -4.1569    0.8000    0.0000 C   0  0  0  0  0  0  0  0  0  0  0  0
    0.0000    0.0000    0.0000 C   0  0  0  0  0  0  0  0  0  0  0  0
    1.3856    0.8000    0.0000 C   0  0  0  0  0  0  0  0  0  0  0  0
    2.7713    0.0000    0.0000 C   0  0  0  0  0  0  0  0  0  0  0  0
    2.7713   -1.6000    0.0000 N   0  0  0  0  0  0  0  0  0  0  0  0
    1.3856   -2.4000    0.0000 C   0  0  0  0  0  0  0  0  0  0  0  0
    0.0000   -1.6000    0.0000 C   0  0  0  0  0  0  0  0  0  0  0  0
   -1.3856   -2.4000    0.0000 C   0  0  0  0  0  0  0  0  0  0  0  0
   -2.7713   -1.6000    0.0000 O   0  0  0  0  0  0  0  0  0  0  0  0
   -4.1569   -2.4000    0.0000 C   0  0  0  0  0  0  0  0  0  0  0  0
   -4.1569   -4.0000    0.0000 C   0  0  0  0  0  0  0  0  0  0  0  0
   -5.5426   -4.8000    0.0000 C   0  0  0  0  0  0  0  0  0  0  0  0
   -6.9282   -4.0000    0.0000 C   0  0  0  0  0  0  0  0  0  0  0  0
   -8.4499   -4.4944    0.0000 O   0  0  0  0  0  0  0  0  0  0  0  0
   -9.3904   -3.2000    0.0000 C   0  0  0  0  0  0  0  0  0  0  0  0
   -8.4499   -1.9056    0.0000 O   0  0  0  0  0  0  0  0  0  0  0  0
   -6.9282   -2.4000    0.0000 C   0  0  0  0  0  0  0  0  0  0  0  0
   -5.5426   -1.6000    0.0000 C   0  0  0  0  0  0  0  0  0  0  0  0
  1  2  1  0  0  0  0
  2  3  1  0  0  0  0
  2  7  2  0  0  0  0
  3  4  2  0  0  0  0
  4  5  1  0  0  0  0
  5  6  2  0  0  0  0
  8  5  1  6  0  0  0
  6  7  1  0  0  0  0
  8  9  1  0  0  0  0
  8 13  1  0  0  0  0
  9 10  1  0  0  0  0
 10 11  1  0  0  0  0
 11 12  1  0  0  0  0
 12 13  1  0  0  0  0
 13 14  1  6  0  0  0
 14 15  1  0  0  0  0
 15 16  1  0  0  0  0
 16 17  1  0  0  0  0
 16 24  2  0  0  0  0
 17 18  2  0  0  0  0
 18 19  1  0  0  0  0
 19 20  1  0  0  0  0
 19 23  2  0  0  0  0
 20 21  1  0  0  0  0
 21 22  1  0  0  0  0
 22 23  1  0  0  0  0
 23 24  1  0  0  0  0
M  END
> <Acceptable>
true

> <IC50>
N/A

$$$$

Generated by Molecular Materials Informatics

 13 14  0  0  0  0  0  0  0  0999 V2000
    1.0218    2.6618    0.0000 O   0  0  0  0  0  0  0  0  0  0  0  0
    1.1890    1.0706    0.0000 C   0  0  0  0  0  0  0  0  0  0  0  0
    2.5747    0.2706    0.0000 N   0  0  0  0  0  0  0  0  0  0  0  0
    2.2420   -1.2944    0.0000 C   0  0  0  0  0  0  0  0  0  0  0  0
    0.6508   -1.4617    0.0000 O   0  0  0  0  0  0  0  0  0  0  0  0
    0.0000    0.0000    0.0000 C   0  0  0  0  0  0  0  0  0  0  0  0
   -1.5650    0.3327    0.0000 C   0  0  0  0  0  0  0  0  0  0  0  0
   -2.6356   -0.8564    0.0000 C   0  0  0  0  0  0  0  0  0  0  0  0
   -4.2007   -0.5237    0.0000 C   0  0  0  0  0  0  0  0  0  0  0  0
   -4.6951    0.9980    0.0000 C   0  0  0  0  0  0  0  0  0  0  0  0
   -3.6245    2.1870    0.0000 C   0  0  0  0  0  0  0  0  0  0  0  0
   -2.0595    1.8543    0.0000 C   0  0  0  0  0  0  0  0  0  0  0  0
    3.3126   -2.4835    0.0000 N   0  0  0  0  0  0  0  0  0  0  0  0
  1  2  2  0  0  0  0
  2  3  1  0  0  0  0
  2  6  1  0  0  0  0
  3  4  2  0  0  0  0
  4  5  1  0  0  0  0
  4 13  1  0  0  0  0
  5  6  1  0  0  0  0
  6  7  1  6  0  0  0
  7  8  1  0  0  0  0
  7 12  2  0  0  0  0
  8  9  2  0  0  0  0
  9 10  1  0  0  0  0
 10 11  2  0  0  0  0
 11 12  1  0  0  0  0
M  END
> <Acceptable>
true

> <IC50>
N/A

$$$$

Generated by Molecular Materials Informatics

 25 26  0  0  0  0  0  0  0  0999 V2000
    4.1569    2.4000    0.0000 O   0  0  0  0  0  0  0  0  0  0  0  0
   12.4708    2.4000    0.0000 O   0  0  0  0  0  0  0  0  0  0  0  0
   -1.3856   -2.4000    0.0000 N   0  0  0  0  0  0  0  0  0  0  0  0
   19.3990    0.0000    0.0000 N   0  0  0  0  0  0  0  0  0  0  0  0
   -2.7713    0.0000    0.0000 N   0  0  0  0  0  0  0  0  0  0  0  0
   18.0133   -2.4000    0.0000 N   0  0  0  0  0  0  0  0  0  0  0  0
    8.3138    1.6000    0.0000 C   0  0  0  0  0  0  0  0  0  0  0  0
    6.9282    2.4000    0.0000 C   0  0  0  0  0  0  0  0  0  0  0  0
    9.6995    2.4000    0.0000 C   0  0  0  0  0  0  0  0  0  0  0  0
    5.5426    1.6000    0.0000 C   0  0  0  0  0  0  0  0  0  0  0  0
   11.0851    1.6000    0.0000 C   0  0  0  0  0  0  0  0  0  0  0  0
    2.7713    1.6000    0.0000 C   0  0  0  0  0  0  0  0  0  0  0  0
   13.8564    1.6000    0.0000 C   0  0  0  0  0  0  0  0  0  0  0  0
    1.3856    2.4000    0.0000 C   0  0  0  0  0  0  0  0  0  0  0  0
   13.8564    0.0000    0.0000 C   0  0  0  0  0  0  0  0  0  0  0  0
    2.7713    0.0000    0.0000 C   0  0  0  0  0  0  0  0  0  0  0  0
   15.2420    2.4000    0.0000 C   0  0  0  0  0  0  0  0  0  0  0  0
    0.0000    0.0000    0.0000 C   0  0  0  0  0  0  0  0  0  0  0  0
   16.6277    0.0000    0.0000 C   0  0  0  0  0  0  0  0  0  0  0  0
    0.0000    1.6000    0.0000 C   0  0  0  0  0  0  0  0  0  0  0  0
   15.2420   -0.8000    0.0000 C   0  0  0  0  0  0  0  0  0  0  0  0
    1.3856   -0.8000    0.0000 C   0  0  0  0  0  0  0  0  0  0  0  0
   16.6277    1.6000    0.0000 C   0  0  0  0  0  0  0  0  0  0  0  0
   -1.3856   -0.8000    0.0000 C   0  0  0  0  0  0  0  0  0  0  0  0
   18.0133   -0.8000    0.0000 C   0  0  0  0  0  0  0  0  0  0  0  0
  1 10  1  0  0  0  0
  1 12  1  0  0  0  0
  2 11  1  0  0  0  0
  2 13  1  0  0  0  0
  3 24  1  0  0  0  0
  4 25  1  0  0  0  0
  5 24  2  0  0  0  0
  6 25  2  0  0  0  0
  7  8  1  0  0  0  0
  7  9  1  0  0  0  0
  8 10  1  0  0  0  0
  9 11  1  0  0  0  0
 12 14  2  0  0  0  0
 12 16  1  0  0  0  0
 13 15  2  0  0  0  0
 13 17  1  0  0  0  0
 14 20  1  0  0  0  0
 15 21  1  0  0  0  0
 16 22  2  0  0  0  0
 17 23  2  0  0  0  0
 18 20  2  0  0  0  0
 18 22  1  0  0  0  0
 18 24  1  0  0  0  0
 19 21  2  0  0  0  0
 19 23  1  0  0  0  0
 19 25  1  0  0  0  0
M  END
> <Acceptable>
true

> <IC50>
>1000

$$$$

Generated by Molecular Materials Informatics

 21 23  0  0  0  0  0  0  0  0999 V2000
   -5.5426    0.0000    0.0000 O   0  0  0  0  0  0  0  0  0  0  0  0
   -4.1569    0.8000    0.0000 C   0  0  0  0  0  0  0  0  0  0  0  0
   -4.1569    2.4000    0.0000 C   0  0  0  0  0  0  0  0  0  0  0  0
   -2.7713    3.2000    0.0000 C   0  0  0  0  0  0  0  0  0  0  0  0
   -1.3856    2.4000    0.0000 C   0  0  0  0  0  0  0  0  0  0  0  0
    0.0000    3.2000    0.0000 C   0  0  0  0  0  0  0  0  0  0  0  0
    1.3856    2.4000    0.0000 C   0  0  0  0  0  0  0  0  0  0  0  0
    2.7713    1.6000    0.0000 N   0  0  0  0  0  0  0  0  0  0  0  0
    2.7713    0.0000    0.0000 C   0  0  0  0  0  0  0  0  0  0  0  0
    1.3856   -0.8000    0.0000 C   0  0  0  0  0  0  0  0  0  0  0  0
    0.0000    0.0000    0.0000 C   0  0  0  0  0  0  0  0  0  0  0  0
   -0.8000   -1.3856    0.0000 C   0  0  0  0  0  0  0  0  0  0  0  0
   -1.3856    0.8000    0.0000 C   0  0  0  0  0  0  0  0  0  0  0  0
   -2.7713    0.0000    0.0000 C   0  0  0  0  0  0  0  0  0  0  0  0
    1.3856    0.8000    0.0000 C   0  0  0  0  0  0  0  0  0  0  0  0
    2.1856   -0.5856    0.0000 C   0  0  0  0  0  0  0  0  0  0  0  0
    4.1569    2.4000    0.0000 C   0  0  0  0  0  0  0  0  0  0  0  0
    5.5426    1.6000    0.0000 C   0  0  0  0  0  0  0  0  0  0  0  0
    6.9282    2.4000    0.0000 C   0  0  0  0  0  0  0  0  0  0  0  0
    6.9282    4.0000    0.0000 C   0  0  0  0  0  0  0  0  0  0  0  0
    8.3138    1.6000    0.0000 C   0  0  0  0  0  0  0  0  0  0  0  0
  1  2  1  0  0  0  0
  2  3  1  0  0  0  0
  2 14  2  0  0  0  0
  3  4  2  0  0  0  0
  4  5  1  0  0  0  0
  5  6  1  0  0  0  0
  5 13  2  0  0  0  0
  7  6  1  1  0  0  0
  7  8  1  0  0  0  0
  7 15  1  0  0  0  0
  8  9  1  0  0  0  0
  8 17  1  1  0  0  0
  9 10  1  0  0  0  0
 10 11  1  0  0  0  0
 11 12  1  6  0  0  0
 11 13  1  0  0  0  0
 11 15  1  0  0  0  0
 13 14  1  0  0  0  0
 15 16  1  6  0  0  0
 17 18  1  0  0  0  0
 18 19  2  0  0  0  0
 19 20  1  0  0  0  0
 19 21  1  0  0  0  0
M  END
> <Acceptable>
true

> <IC50>
N/A

$$$$

Generated by Molecular Materials Informatics

 16 16  0  0  0  0  0  0  0  0999 V2000
   -4.1569    2.4000    0.0000 O   0  0  0  0  0  0  0  0  0  0  0  0
   -2.7713    1.6000    0.0000 C   0  0  0  0  0  0  0  0  0  0  0  0
   -2.7713    0.0000    0.0000 N   0  0  0  0  0  0  0  0  0  0  0  0
   -1.3856   -0.8000    0.0000 C   0  0  0  0  0  0  0  0  0  0  0  0
   -1.3856   -2.4000    0.0000 O   0  0  0  0  0  0  0  0  0  0  0  0
    0.0000    0.0000    0.0000 C   0  0  0  0  0  0  0  0  0  0  0  0
    0.5472   -1.5035    0.0000 C   0  0  0  0  0  0  0  0  0  0  0  0
   -0.4812   -2.7292    0.0000 C   0  0  0  0  0  0  0  0  0  0  0  0
    0.0000    1.6000    0.0000 C   0  0  0  0  0  0  0  0  0  0  0  0
    1.3856    2.4000    0.0000 O   0  0  0  0  0  0  0  0  0  0  0  0
   -1.3856    2.4000    0.0000 N   0  0  0  0  0  0  0  0  0  0  0  0
    1.5757    0.2778    0.0000 C   0  0  0  0  0  0  0  0  0  0  0  0
    2.1229    1.7813    0.0000 C   0  0  0  0  0  0  0  0  0  0  0  0
    2.6042   -0.9478    0.0000 C   0  0  0  0  0  0  0  0  0  0  0  0
    4.1798   -0.6700    0.0000 C   0  0  0  0  0  0  0  0  0  0  0  0
    5.2083   -1.8957    0.0000 C   0  0  0  0  0  0  0  0  0  0  0  0
  1  2  2  0  0  0  0
  2  3  1  0  0  0  0
  2 11  1  0  0  0  0
  3  4  1  0  0  0  0
  4  5  2  0  0  0  0
  4  6  1  0  0  0  0
  6  7  1  0  0  0  0
  6  9  1  0  0  0  0
  6 12  1  0  0  0  0
  7  8  1  0  0  0  0
  9 10  2  0  0  0  0
  9 11  1  0  0  0  0
 12 13  1  6  0  0  0
 12 14  1  0  0  0  0
 14 15  1  0  0  0  0
 15 16  1  0  0  0  0
M  END
> <Acceptable>
true

> <IC50>
131.82

$$$$

Generated by Molecular Materials Informatics

 20 21  0  0  0  0  0  0  0  0999 V2000
    4.1569    2.4000    0.0000 O   0  0  0  0  0  0  0  0  0  0  0  0
    2.7713    1.6000    0.0000 C   0  0  0  0  0  0  0  0  0  0  0  0
    1.3856    2.4000    0.0000 N   0  0  0  0  0  0  0  0  0  0  0  0
    1.3856    4.0000    0.0000 C   0  0  0  0  0  0  0  0  0  0  0  0
    0.0000    1.6000    0.0000 C   0  0  0  0  0  0  0  0  0  0  0  0
   -1.5217    2.0944    0.0000 N   0  0  0  0  0  0  0  0  0  0  0  0
   -2.4621    0.8000    0.0000 C   0  0  0  0  0  0  0  0  0  0  0  0
   -1.5217   -0.4944    0.0000 N   0  0  0  0  0  0  0  0  0  0  0  0
   -2.0161   -2.0161    0.0000 C   0  0  0  0  0  0  0  0  0  0  0  0
    0.0000    0.0000    0.0000 C   0  0  0  0  0  0  0  0  0  0  0  0
    1.3856   -0.8000    0.0000 C   0  0  0  0  0  0  0  0  0  0  0  0
    1.3856   -2.4000    0.0000 O   0  0  0  0  0  0  0  0  0  0  0  0
    2.7713    0.0000    0.0000 N   0  0  0  0  0  0  0  0  0  0  0  0
    4.1569   -0.8000    0.0000 C   0  0  0  0  0  0  0  0  0  0  0  0
    5.5426    0.0000    0.0000 C   0  0  0  0  0  0  0  0  0  0  0  0
    6.9282   -0.8000    0.0000 C   0  0  0  0  0  0  0  0  0  0  0  0
    8.3138    0.0000    0.0000 C   0  0  0  0  0  0  0  0  0  0  0  0
    9.6995   -0.8000    0.0000 C   0  0  0  0  0  0  0  0  0  0  0  0
    9.6995   -2.4000    0.0000 O   0  0  0  0  0  0  0  0  0  0  0  0
   11.0851    0.0000    0.0000 C   0  0  0  0  0  0  0  0  0  0  0  0
  1  2  2  0  0  0  0
  2  3  1  0  0  0  0
  2 13  1  0  0  0  0
  3  4  1  0  0  0  0
  3  5  1  0  0  0  0
  5  6  1  0  0  0  0
  5 10  2  0  0  0  0
  6  7  2  0  0  0  0
  7  8  1  0  0  0  0
  8  9  1  0  0  0  0
  8 10  1  0  0  0  0
 10 11  1  0  0  0  0
 11 12  2  0  0  0  0
 11 13  1  0  0  0  0
 13 14  1  0  0  0  0
 14 15  1  0  0  0  0
 15 16  1  0  0  0  0
 16 17  1  0  0  0  0
 17 18  1  0  0  0  0
 18 19  2  0  0  0  0
 18 20  1  0  0  0  0
M  END
> <Acceptable>
true

> <IC50>
N/A

$$$$

Generated by Molecular Materials Informatics

 24 25  0  0  0  0  0  0  0  0999 V2000
    2.7107    0.5762    0.0000 O   0  0  0  0  0  0  0  0  0  0  0  0
    0.8564    2.6356    0.0000 O   0  0  0  0  0  0  0  0  0  0  0  0
    6.6105    2.2230    0.0000 O   0  0  0  0  0  0  0  0  0  0  0  0
   10.8429    2.3047    0.0000 N   0  0  0  0  0  0  0  0  0  0  0  0
    0.0000    0.0000    0.0000 C   0  0  0  0  0  0  0  0  0  0  0  0
   -1.3856   -0.8000    0.0000 C   0  0  0  0  0  0  0  0  0  0  0  0
    1.1890   -1.0706    0.0000 C   0  0  0  0  0  0  0  0  0  0  0  0
   -1.0530   -2.3650    0.0000 C   0  0  0  0  0  0  0  0  0  0  0  0
    0.5383   -2.5323    0.0000 C   0  0  0  0  0  0  0  0  0  0  0  0
   -0.9405    1.2944    0.0000 C   0  0  0  0  0  0  0  0  0  0  0  0
    1.1890    1.0706    0.0000 C   0  0  0  0  0  0  0  0  0  0  0  0
   -0.2897    2.7561    0.0000 C   0  0  0  0  0  0  0  0  0  0  0  0
   -2.5317    1.1272    0.0000 C   0  0  0  0  0  0  0  0  0  0  0  0
   -1.2301    4.0505    0.0000 C   0  0  0  0  0  0  0  0  0  0  0  0
   -3.4721    2.4216    0.0000 C   0  0  0  0  0  0  0  0  0  0  0  0
    3.8998    1.6468    0.0000 C   0  0  0  0  0  0  0  0  0  0  0  0
   -2.8214    3.8833    0.0000 C   0  0  0  0  0  0  0  0  0  0  0  0
    5.4214    1.1524    0.0000 C   0  0  0  0  0  0  0  0  0  0  0  0
    9.3212    2.7991    0.0000 C   0  0  0  0  0  0  0  0  0  0  0  0
    8.1322    1.7285    0.0000 C   0  0  0  0  0  0  0  0  0  0  0  0
   11.1755    0.7397    0.0000 C   0  0  0  0  0  0  0  0  0  0  0  0
   12.0319    3.3753    0.0000 C   0  0  0  0  0  0  0  0  0  0  0  0
   12.6972    0.2453    0.0000 C   0  0  0  0  0  0  0  0  0  0  0  0
   13.5536    2.8809    0.0000 C   0  0  0  0  0  0  0  0  0  0  0  0
  1 11  1  0  0  0  0
  1 16  1  0  0  0  0
  2 11  2  0  0  0  0
  3 18  1  0  0  0  0
  3 20  1  0  0  0  0
  4 19  1  0  0  0  0
  4 21  1  0  0  0  0
  4 22  1  0  0  0  0
  5  6  1  0  0  0  0
  5  7  1  0  0  0  0
  5 10  1  0  0  0  0
  5 11  1  0  0  0  0
  6  8  1  0  0  0  0
  7  9  1  0  0  0  0
  8  9  1  0  0  0  0
 10 12  2  0  0  0  0
 10 13  1  0  0  0  0
 12 14  1  0  0  0  0
 13 15  2  0  0  0  0
 14 17  2  0  0  0  0
 15 17  1  0  0  0  0
 16 18  1  0  0  0  0
 19 20  1  0  0  0  0
 21 23  1  0  0  0  0
 22 24  1  0  0  0  0
M  END
> <Acceptable>
false

> <IC50>
3

$$$$

Generated by Molecular Materials Informatics

 22 25  0  0  0  0  0  0  0  0999 V2000
   -8.3138    0.0000    0.0000 S   0  0  0  0  0  0  0  0  0  0  0  0
   -9.6995   -0.8000    0.0000 C   0  0  0  0  0  0  0  0  0  0  0  0
   -6.9282   -0.8000    0.0000 C   0  0  0  0  0  0  0  0  0  0  0  0
   -5.5426    0.0000    0.0000 C   0  0  0  0  0  0  0  0  0  0  0  0
   -5.5426    1.6000    0.0000 C   0  0  0  0  0  0  0  0  0  0  0  0
   -4.1569    2.4000    0.0000 N   0  0  0  0  0  0  0  0  0  0  0  0
   -4.1569    4.0000    0.0000 C   0  0  0  0  0  0  0  0  0  0  0  0
   -5.5426    4.8000    0.0000 C   0  0  0  0  0  0  0  0  0  0  0  0
   -5.5426    6.4000    0.0000 C   0  0  0  0  0  0  0  0  0  0  0  0
   -2.7713    1.6000    0.0000 C   0  0  0  0  0  0  0  0  0  0  0  0
   -1.3856    2.4000    0.0000 C   0  0  0  0  0  0  0  0  0  0  0  0
    0.0000    1.6000    0.0000 C   0  0  0  0  0  0  0  0  0  0  0  0
    1.5823    1.8373    0.0000 C   0  0  0  0  0  0  0  0  0  0  0  0
    2.3823    0.4517    0.0000 N   0  0  0  0  0  0  0  0  0  0  0  0
    1.3856   -0.8000    0.0000 C   0  0  0  0  0  0  0  0  0  0  0  0
    1.3856   -2.4000    0.0000 C   0  0  0  0  0  0  0  0  0  0  0  0
    0.0000   -3.2000    0.0000 C   0  0  0  0  0  0  0  0  0  0  0  0
   -1.3856   -2.4000    0.0000 C   0  0  0  0  0  0  0  0  0  0  0  0
   -1.3856   -0.8000    0.0000 C   0  0  0  0  0  0  0  0  0  0  0  0
    0.0000    0.0000    0.0000 C   0  0  0  0  0  0  0  0  0  0  0  0
   -2.7713    0.0000    0.0000 C   0  0  0  0  0  0  0  0  0  0  0  0
   -4.1569   -0.8000    0.0000 C   0  0  0  0  0  0  0  0  0  0  0  0
  1  2  1  0  0  0  0
  1  3  1  0  0  0  0
  4  3  1  1  0  0  0
  4  5  1  0  0  0  0
  4 22  1  0  0  0  0
  5  6  1  0  0  0  0
  6  7  1  1  0  0  0
  6 10  1  0  0  0  0
  7  8  1  0  0  0  0
  8  9  1  0  0  0  0
 10 11  1  6  0  0  0
 10 21  1  0  0  0  0
 11 12  1  0  0  0  0
 12 13  1  0  0  0  0
 12 20  1  1  0  0  0
 13 14  2  0  0  0  0
 14 15  1  0  0  0  0
 15 16  1  0  0  0  0
 15 20  2  0  0  0  0
 16 17  2  0  0  0  0
 17 18  1  0  0  0  0
 18 19  2  0  0  0  0
 19 20  1  0  0  0  0
 19 21  1  0  0  0  0
 21 22  1  1  0  0  0
M  END
> <Acceptable>
false

> <IC50>
0.12

$$$$

Generated by Molecular Materials Informatics

 20 22  0  0  0  0  0  0  0  0999 V2000
   -3.2000    0.0000    0.0000 N   0  0  0  0  0  0  0  0  0  0  0  0
   -4.8000    0.0000    0.0000 C   0  0  0  0  0  0  0  0  0  0  0  0
   -5.6000    1.3856    0.0000 C   0  0  0  0  0  0  0  0  0  0  0  0
   -4.8000    2.7713    0.0000 C   0  0  0  0  0  0  0  0  0  0  0  0
   -3.2000    2.7713    0.0000 C   0  0  0  0  0  0  0  0  0  0  0  0
   -2.4000    1.3856    0.0000 C   0  0  0  0  0  0  0  0  0  0  0  0
   -0.8000    1.3856    0.0000 C   0  0  0  0  0  0  0  0  0  0  0  0
    0.0000    0.0000    0.0000 C   0  0  0  0  0  0  0  0  0  0  0  0
   -0.8000   -1.3856    0.0000 C   0  0  0  0  0  0  0  0  0  0  0  0
    0.0000   -2.7713    0.0000 C   0  0  0  0  0  0  0  0  0  0  0  0
   -0.8000   -4.1569    0.0000 C   0  0  0  0  0  0  0  0  0  0  0  0
   -2.4000   -4.1569    0.0000 C   0  0  0  0  0  0  0  0  0  0  0  0
   -3.2000   -2.7713    0.0000 C   0  0  0  0  0  0  0  0  0  0  0  0
   -2.4000   -1.3856    0.0000 C   0  0  0  0  0  0  0  0  0  0  0  0
    1.6000    0.0000    0.0000 C   0  0  0  0  0  0  0  0  0  0  0  0
    2.4000    1.3856    0.0000 C   0  0  0  0  0  0  0  0  0  0  0  0
    4.0000    1.3856    0.0000 C   0  0  0  0  0  0  0  0  0  0  0  0
    4.8000    0.0000    0.0000 C   0  0  0  0  0  0  0  0  0  0  0  0
    4.0000   -1.3856    0.0000 C   0  0  0  0  0  0  0  0  0  0  0  0
    2.4000   -1.3856    0.0000 C   0  0  0  0  0  0  0  0  0  0  0  0
  1  2  1  0  0  0  0
  1  6  1  0  0  0  0
  2  3  1  0  0  0  0
  3  4  1  0  0  0  0
  4  5  1  0  0  0  0
  5  6  1  0  0  0  0
  6  7  1  1  0  0  0
  7  8  1  0  0  0  0
  8  9  1  0  0  0  0
  8 15  1  0  0  0  0
  9 10  1  0  0  0  0
  9 14  1  0  0  0  0
 10 11  1  0  0  0  0
 11 12  1  0  0  0  0
 12 13  1  0  0  0  0
 13 14  1  0  0  0  0
 15 16  1  0  0  0  0
 15 20  1  0  0  0  0
 16 17  1  0  0  0  0
 17 18  1  0  0  0  0
 18 19  1  0  0  0  0
 19 20  1  0  0  0  0
M  END
> <Acceptable>
false

> <IC50>
7.8

$$$$

Generated by Molecular Materials Informatics

 27 30  0  0  0  0  0  0  0  0999 V2000
   -4.8000    2.7713    0.0000 Cl  0  0  0  0  0  0  0  0  0  0  0  0
   -4.0000    1.3856    0.0000 C   0  0  0  0  0  0  0  0  0  0  0  0
   -4.8000    0.0000    0.0000 C   0  0  0  0  0  0  0  0  0  0  0  0
   -4.0000   -1.3856    0.0000 C   0  0  0  0  0  0  0  0  0  0  0  0
   -2.4000   -1.3856    0.0000 C   0  0  0  0  0  0  0  0  0  0  0  0
   -1.6000   -2.7713    0.0000 S   0  0  0  0  0  0  0  0  0  0  0  0
    0.0000   -2.7713    0.0000 C   0  0  0  0  0  0  0  0  0  0  0  0
    0.8000   -4.1569    0.0000 C   0  0  0  0  0  0  0  0  0  0  0  0
    2.4000   -4.1569    0.0000 C   0  0  0  0  0  0  0  0  0  0  0  0
    3.2000   -2.7713    0.0000 C   0  0  0  0  0  0  0  0  0  0  0  0
    2.4000   -1.3856    0.0000 C   0  0  0  0  0  0  0  0  0  0  0  0
    0.8000   -1.3856    0.0000 C   0  0  0  0  0  0  0  0  0  0  0  0
    0.0000    0.0000    0.0000 N   0  0  0  0  0  0  0  0  0  0  0  0
    0.8000    1.3856    0.0000 C   0  0  0  0  0  0  0  0  0  0  0  0
    2.4000    1.3856    0.0000 C   0  0  0  0  0  0  0  0  0  0  0  0
    3.2000    2.7713    0.0000 C   0  0  0  0  0  0  0  0  0  0  0  0
    4.8000    2.7713    0.0000 N   0  0  0  0  0  0  0  0  0  0  0  0
    5.6000    1.3856    0.0000 C   0  0  0  0  0  0  0  0  0  0  0  0
    7.2000    1.3856    0.0000 C   0  0  0  0  0  0  0  0  0  0  0  0
    8.0000    2.7713    0.0000 N   0  0  0  0  0  0  0  0  0  0  0  0
    7.2000    4.1569    0.0000 C   0  0  0  0  0  0  0  0  0  0  0  0
    5.6000    4.1569    0.0000 C   0  0  0  0  0  0  0  0  0  0  0  0
    9.6000    2.7713    0.0000 C   0  0  0  0  0  0  0  0  0  0  0  0
   10.4000    4.1569    0.0000 C   0  0  0  0  0  0  0  0  0  0  0  0
   12.0000    4.1569    0.0000 O   0  0  0  0  0  0  0  0  0  0  0  0
   -1.6000    0.0000    0.0000 C   0  0  0  0  0  0  0  0  0  0  0  0
   -2.4000    1.3856    0.0000 C   0  0  0  0  0  0  0  0  0  0  0  0
  1  2  1  0  0  0  0
  2  3  1  0  0  0  0
  2 27  2  0  0  0  0
  3  4  2  0  0  0  0
  4  5  1  0  0  0  0
  5  6  1  0  0  0  0
  5 26  2  0  0  0  0
  6  7  1  0  0  0  0
  7  8  1  0  0  0  0
  7 12  2  0  0  0  0
  8  9  2  0  0  0  0
  9 10  1  0  0  0  0
 10 11  2  0  0  0  0
 11 12  1  0  0  0  0
 12 13  1  0  0  0  0
 13 14  1  0  0  0  0
 13 26  1  0  0  0  0
 14 15  1  0  0  0  0
 15 16  1  0  0  0  0
 17 16  1  1  0  0  0
 17 18  1  0  0  0  0
 17 22  1  0  0  0  0
 18 19  1  0  0  0  0
 19 20  1  0  0  0  0
 20 21  1  0  0  0  0
 20 23  1  6  0  0  0
 21 22  1  0  0  0  0
 23 24  1  0  0  0  0
 24 25  1  0  0  0  0
 26 27  1  0  0  0  0
M  END
> <Acceptable>
false

> <IC50>
1

$$$$

Generated by Molecular Materials Informatics

 18 19  0  0  0  0  0  0  0  0999 V2000
    0.4812   -2.7292    0.0000 O   0  0  0  0  0  0  0  0  0  0  0  0
   -0.5472   -1.5035    0.0000 C   0  0  0  0  0  0  0  0  0  0  0  0
   -0.0660   -4.2327    0.0000 C   0  0  0  0  0  0  0  0  0  0  0  0
   -2.1229   -1.7813    0.0000 O   0  0  0  0  0  0  0  0  0  0  0  0
    0.0000    0.0000    0.0000 C   0  0  0  0  0  0  0  0  0  0  0  0
    0.9625   -5.4584    0.0000 C   0  0  0  0  0  0  0  0  0  0  0  0
   -4.7271    0.8335    0.0000 C   0  0  0  0  0  0  0  0  0  0  0  0
   -4.1798   -0.6700    0.0000 C   0  0  0  0  0  0  0  0  0  0  0  0
   -2.6042   -0.9478    0.0000 C   0  0  0  0  0  0  0  0  0  0  0  0
   -1.5757    0.2778    0.0000 C   0  0  0  0  0  0  0  0  0  0  0  0
   -2.1229    1.7813    0.0000 C   0  0  0  0  0  0  0  0  0  0  0  0
   -3.6986    2.0592    0.0000 C   0  0  0  0  0  0  0  0  0  0  0  0
    1.3856   -0.8000    0.0000 C   0  0  0  0  0  0  0  0  0  0  0  0
    2.7713    0.0000    0.0000 C   0  0  0  0  0  0  0  0  0  0  0  0
    2.7713    1.6000    0.0000 N   0  0  0  0  0  0  0  0  0  0  0  0
    1.3856    2.4000    0.0000 C   0  0  0  0  0  0  0  0  0  0  0  0
    0.0000    1.6000    0.0000 C   0  0  0  0  0  0  0  0  0  0  0  0
    4.1569    2.4000    0.0000 C   0  0  0  0  0  0  0  0  0  0  0  0
  1  2  1  0  0  0  0
  1  3  1  0  0  0  0
  2  4  2  0  0  0  0
  5  2  1  1  0  0  0
  3  6  1  0  0  0  0
  5 10  1  0  0  0  0
  5 13  1  0  0  0  0
  5 17  1  0  0  0  0
  7  8  1  0  0  0  0
  7 12  2  0  0  0  0
  8  9  2  0  0  0  0
  9 10  1  0  0  0  0
 10 11  2  0  0  0  0
 11 12  1  0  0  0  0
 13 14  1  0  0  0  0
 14 15  1  0  0  0  0
 15 16  1  0  0  0  0
 15 18  1  6  0  0  0
 16 17  1  0  0  0  0
M  END
> <Acceptable>
true

> <IC50>
75

$$$$

Generated by Molecular Materials Informatics

 14 15  0  0  0  0  0  0  0  0999 V2000
   -0.1492    2.8473    0.0000 O   0  0  0  0  0  0  0  0  0  0  0  0
   -0.8000    1.3856    0.0000 C   0  0  0  0  0  0  0  0  0  0  0  0
    0.0000    0.0000    0.0000 N   0  0  0  0  0  0  0  0  0  0  0  0
   -1.0706   -1.1890    0.0000 N   0  0  0  0  0  0  0  0  0  0  0  0
   -0.7379   -2.7541    0.0000 C   0  0  0  0  0  0  0  0  0  0  0  0
   -2.5323   -0.5383    0.0000 C   0  0  0  0  0  0  0  0  0  0  0  0
   -3.9179   -1.3383    0.0000 C   0  0  0  0  0  0  0  0  0  0  0  0
   -2.3650    1.0530    0.0000 C   0  0  0  0  0  0  0  0  0  0  0  0
    1.5912   -0.1672    0.0000 C   0  0  0  0  0  0  0  0  0  0  0  0
    2.5317    1.1272    0.0000 C   0  0  0  0  0  0  0  0  0  0  0  0
    4.1229    0.9599    0.0000 C   0  0  0  0  0  0  0  0  0  0  0  0
    4.7737   -0.5017    0.0000 C   0  0  0  0  0  0  0  0  0  0  0  0
    3.8332   -1.7962    0.0000 C   0  0  0  0  0  0  0  0  0  0  0  0
    2.2420   -1.6289    0.0000 C   0  0  0  0  0  0  0  0  0  0  0  0
  1  2  2  0  0  0  0
  2  3  1  0  0  0  0
  2  8  1  0  0  0  0
  3  4  1  0  0  0  0
  3  9  1  0  0  0  0
  4  5  1  0  0  0  0
  4  6  1  0  0  0  0
  6  7  1  0  0  0  0
  6  8  2  0  0  0  0
  9 10  1  0  0  0  0
  9 14  2  0  0  0  0
 10 11  2  0  0  0  0
 11 12  1  0  0  0  0
 12 13  2  0  0  0  0
 13 14  1  0  0  0  0
M  END
> <Acceptable>
true

> <IC50>
N/A

$$$$

Generated by Molecular Materials Informatics

 16 17  0  0  0  0  0  0  0  0999 V2000
   -4.8000    0.0000    0.0000 N   0  0  0  0  0  0  0  0  0  0  0  0
   -3.2000    0.0000    0.0000 C   0  0  0  0  0  0  0  0  0  0  0  0
   -2.4000   -1.3856    0.0000 N   0  0  0  0  0  0  0  0  0  0  0  0
   -0.8000   -1.3856    0.0000 C   0  0  0  0  0  0  0  0  0  0  0  0
    0.0000   -2.7713    0.0000 N   0  0  0  0  0  0  0  0  0  0  0  0
    0.0000    0.0000    0.0000 C   0  0  0  0  0  0  0  0  0  0  0  0
    1.6000    0.0000    0.0000 N   0  0  0  0  0  0  0  0  0  0  0  0
    2.4000    1.3856    0.0000 N   0  0  0  0  0  0  0  0  0  0  0  0
    4.0000    1.3856    0.0000 C   0  0  0  0  0  0  0  0  0  0  0  0
    4.8000    0.0000    0.0000 C   0  0  0  0  0  0  0  0  0  0  0  0
    6.4000    0.0000    0.0000 C   0  0  0  0  0  0  0  0  0  0  0  0
    7.2000    1.3856    0.0000 C   0  0  0  0  0  0  0  0  0  0  0  0
    6.4000    2.7713    0.0000 C   0  0  0  0  0  0  0  0  0  0  0  0
    4.8000    2.7713    0.0000 C   0  0  0  0  0  0  0  0  0  0  0  0
   -0.8000    1.3856    0.0000 C   0  0  0  0  0  0  0  0  0  0  0  0
   -2.4000    1.3856    0.0000 C   0  0  0  0  0  0  0  0  0  0  0  0
  1  2  1  0  0  0  0
  2  3  1  0  0  0  0
  2 16  2  0  0  0  0
  3  4  2  0  0  0  0
  4  5  1  0  0  0  0
  4  6  1  0  0  0  0
  6  7  1  0  0  0  0
  6 15  2  0  0  0  0
  7  8  2  0  0  0  0
  8  9  1  0  0  0  0
  9 10  1  0  0  0  0
  9 14  2  0  0  0  0
 10 11  2  0  0  0  0
 11 12  1  0  0  0  0
 12 13  2  0  0  0  0
 13 14  1  0  0  0  0
 15 16  1  0  0  0  0
M  END
> <Acceptable>
true

> <IC50>
N/A

$$$$

Generated by Molecular Materials Informatics

 14 15  0  0  0  0  0  0  0  0999 V2000
   -0.8000    1.3856    0.0000 O   0  0  0  0  0  0  0  0  0  0  0  0
   -2.4000    1.3856    0.0000 C   0  0  0  0  0  0  0  0  0  0  0  0
   -3.2000    0.0000    0.0000 C   0  0  0  0  0  0  0  0  0  0  0  0
   -2.4000   -1.3856    0.0000 N   0  0  0  0  0  0  0  0  0  0  0  0
   -3.2000   -2.7713    0.0000 C   0  0  0  0  0  0  0  0  0  0  0  0
   -0.8000   -1.3856    0.0000 C   0  0  0  0  0  0  0  0  0  0  0  0
    0.0000   -2.7713    0.0000 C   0  0  0  0  0  0  0  0  0  0  0  0
    0.0000    0.0000    0.0000 C   0  0  0  0  0  0  0  0  0  0  0  0
    1.6000    0.0000    0.0000 C   0  0  0  0  0  0  0  0  0  0  0  0
    2.4000   -1.3856    0.0000 C   0  0  0  0  0  0  0  0  0  0  0  0
    4.0000   -1.3856    0.0000 C   0  0  0  0  0  0  0  0  0  0  0  0
    4.8000    0.0000    0.0000 C   0  0  0  0  0  0  0  0  0  0  0  0
    4.0000    1.3856    0.0000 C   0  0  0  0  0  0  0  0  0  0  0  0
    2.4000    1.3856    0.0000 C   0  0  0  0  0  0  0  0  0  0  0  0
  1  2  1  0  0  0  0
  1  8  1  0  0  0  0
  2  3  1  0  0  0  0
  3  4  1  0  0  0  0
  4  5  1  6  0  0  0
  4  6  1  0  0  0  0
  6  7  1  6  0  0  0
  6  8  1  0  0  0  0
  8  9  1  1  0  0  0
  9 10  1  0  0  0  0
  9 14  2  0  0  0  0
 10 11  2  0  0  0  0
 11 12  1  0  0  0  0
 12 13  2  0  0  0  0
 13 14  1  0  0  0  0
M  END
> <Acceptable>
true

> <IC50>
N/A

$$$$

Generated by Molecular Materials Informatics

 10 10  0  0  0  0  0  0  0  0999 V2000
   -5.5426    0.0000    0.0000 N   0  0  0  0  0  0  0  0  0  0  0  0
   -4.1569    0.8000    0.0000 N   0  0  0  0  0  0  0  0  0  0  0  0
   -2.7713    0.0000    0.0000 C   0  0  0  0  0  0  0  0  0  0  0  0
   -1.3856    0.8000    0.0000 C   0  0  0  0  0  0  0  0  0  0  0  0
    0.0000    0.0000    0.0000 C   0  0  0  0  0  0  0  0  0  0  0  0
    0.0000   -1.6000    0.0000 C   0  0  0  0  0  0  0  0  0  0  0  0
    1.3856   -2.4000    0.0000 C   0  0  0  0  0  0  0  0  0  0  0  0
    2.7713   -1.6000    0.0000 C   0  0  0  0  0  0  0  0  0  0  0  0
    2.7713    0.0000    0.0000 C   0  0  0  0  0  0  0  0  0  0  0  0
    1.3856    0.8000    0.0000 C   0  0  0  0  0  0  0  0  0  0  0  0
  1  2  1  0  0  0  0
  2  3  1  0  0  0  0
  3  4  1  0  0  0  0
  4  5  1  0  0  0  0
  5  6  1  0  0  0  0
  5 10  2  0  0  0  0
  6  7  2  0  0  0  0
  7  8  1  0  0  0  0
  8  9  2  0  0  0  0
  9 10  1  0  0  0  0
M  END
> <Acceptable>
true

> <IC50>
N/A

$$$$

Generated by Molecular Materials Informatics

 17 18  0  0  0  0  0  0  0  0999 V2000
   -4.1569    2.4000    0.0000 O   0  0  0  0  0  0  0  0  0  0  0  0
   -2.7713    1.6000    0.0000 C   0  0  0  0  0  0  0  0  0  0  0  0
   -2.7713    0.0000    0.0000 N   0  0  0  0  0  0  0  0  0  0  0  0
   -1.3856   -0.8000    0.0000 C   0  0  0  0  0  0  0  0  0  0  0  0
   -1.3856   -2.4000    0.0000 O   0  0  0  0  0  0  0  0  0  0  0  0
    0.0000    0.0000    0.0000 C   0  0  0  0  0  0  0  0  0  0  0  0
    0.5472   -1.5035    0.0000 C   0  0  0  0  0  0  0  0  0  0  0  0
   -0.4812   -2.7292    0.0000 C   0  0  0  0  0  0  0  0  0  0  0  0
    0.0000    1.6000    0.0000 C   0  0  0  0  0  0  0  0  0  0  0  0
    1.3856    2.4000    0.0000 O   0  0  0  0  0  0  0  0  0  0  0  0
   -1.3856    2.4000    0.0000 N   0  0  0  0  0  0  0  0  0  0  0  0
    1.5757    0.2778    0.0000 C   0  0  0  0  0  0  0  0  0  0  0  0
    2.6042   -0.9478    0.0000 C   0  0  0  0  0  0  0  0  0  0  0  0
    4.1798   -0.6700    0.0000 C   0  0  0  0  0  0  0  0  0  0  0  0
    4.7271    0.8335    0.0000 C   0  0  0  0  0  0  0  0  0  0  0  0
    3.6986    2.0592    0.0000 C   0  0  0  0  0  0  0  0  0  0  0  0
    2.1229    1.7813    0.0000 C   0  0  0  0  0  0  0  0  0  0  0  0
  1  2  2  0  0  0  0
  2  3  1  0  0  0  0
  2 11  1  0  0  0  0
  3  4  1  0  0  0  0
  4  5  2  0  0  0  0
  4  6  1  0  0  0  0
  6  7  1  0  0  0  0
  6  9  1  0  0  0  0
  6 12  1  0  0  0  0
  7  8  1  0  0  0  0
  9 10  2  0  0  0  0
  9 11  1  0  0  0  0
 12 13  1  0  0  0  0
 12 17  2  0  0  0  0
 13 14  2  0  0  0  0
 14 15  1  0  0  0  0
 15 16  2  0  0  0  0
 16 17  1  0  0  0  0
M  END
> <Acceptable>
true

> <IC50>
3000

$$$$

Generated by Molecular Materials Informatics

 21 22  0  0  0  0  0  0  0  0999 V2000
    1.3856   -4.0000    0.0000 Cl  0  0  0  0  0  0  0  0  0  0  0  0
    1.3856   -2.4000    0.0000 C   0  0  0  0  0  0  0  0  0  0  0  0
    0.0000   -1.6000    0.0000 C   0  0  0  0  0  0  0  0  0  0  0  0
    0.0000    0.0000    0.0000 N   0  0  0  0  0  0  0  0  0  0  0  0
   -1.3856    0.8000    0.0000 C   0  0  0  0  0  0  0  0  0  0  0  0
   -2.7713    0.0000    0.0000 C   0  0  0  0  0  0  0  0  0  0  0  0
   -2.7713   -1.6000    0.0000 C   0  0  0  0  0  0  0  0  0  0  0  0
   -4.1569   -2.4000    0.0000 C   0  0  0  0  0  0  0  0  0  0  0  0
   -5.5426   -1.6000    0.0000 C   0  0  0  0  0  0  0  0  0  0  0  0
   -5.5426    0.0000    0.0000 C   0  0  0  0  0  0  0  0  0  0  0  0
   -4.1569    0.8000    0.0000 C   0  0  0  0  0  0  0  0  0  0  0  0
    1.3856    0.8000    0.0000 C   0  0  0  0  0  0  0  0  0  0  0  0
    1.3856    2.4000    0.0000 C   0  0  0  0  0  0  0  0  0  0  0  0
    2.7713    0.0000    0.0000 C   0  0  0  0  0  0  0  0  0  0  0  0
    4.1569    0.8000    0.0000 O   0  0  0  0  0  0  0  0  0  0  0  0
    5.5426    0.0000    0.0000 C   0  0  0  0  0  0  0  0  0  0  0  0
    6.9282    0.8000    0.0000 C   0  0  0  0  0  0  0  0  0  0  0  0
    8.3138    0.0000    0.0000 C   0  0  0  0  0  0  0  0  0  0  0  0
    8.3138   -1.6000    0.0000 C   0  0  0  0  0  0  0  0  0  0  0  0
    6.9282   -2.4000    0.0000 C   0  0  0  0  0  0  0  0  0  0  0  0
    5.5426   -1.6000    0.0000 C   0  0  0  0  0  0  0  0  0  0  0  0
  1  2  1  0  0  0  0
  2  3  1  0  0  0  0
  3  4  1  0  0  0  0
  4  5  1  6  0  0  0
  4 12  1  0  0  0  0
  5  6  1  0  0  0  0
  6  7  1  0  0  0  0
  6 11  2  0  0  0  0
  7  8  2  0  0  0  0
  8  9  1  0  0  0  0
  9 10  2  0  0  0  0
 10 11  1  0  0  0  0
 12 13  1  6  0  0  0
 12 14  1  0  0  0  0
 14 15  1  0  0  0  0
 15 16  1  0  0  0  0
 16 17  1  0  0  0  0
 16 21  2  0  0  0  0
 17 18  2  0  0  0  0
 18 19  1  0  0  0  0
 19 20  2  0  0  0  0
 20 21  1  0  0  0  0
M  END
> <Acceptable>
true

> <IC50>
N/A

$$$$

Generated by Molecular Materials Informatics

 11 11  0  0  0  0  0  0  0  0999 V2000
   -2.7713   -1.6000    0.0000 N   0  0  0  0  0  0  0  0  0  0  0  0
   -2.7713    0.0000    0.0000 C   0  0  0  0  0  0  0  0  0  0  0  0
   -4.1569    0.8000    0.0000 C   0  0  0  0  0  0  0  0  0  0  0  0
   -4.1569   -0.8000    0.0000 C   0  0  0  0  0  0  0  0  0  0  0  0
   -1.3856    0.8000    0.0000 C   0  0  0  0  0  0  0  0  0  0  0  0
    0.0000    0.0000    0.0000 C   0  0  0  0  0  0  0  0  0  0  0  0
    0.0000   -1.6000    0.0000 C   0  0  0  0  0  0  0  0  0  0  0  0
    1.3856   -2.4000    0.0000 C   0  0  0  0  0  0  0  0  0  0  0  0
    2.7713   -1.6000    0.0000 C   0  0  0  0  0  0  0  0  0  0  0  0
    2.7713    0.0000    0.0000 C   0  0  0  0  0  0  0  0  0  0  0  0
    1.3856    0.8000    0.0000 C   0  0  0  0  0  0  0  0  0  0  0  0
  1  2  1  0  0  0  0
  2  3  1  0  0  0  0
  2  4  1  0  0  0  0
  2  5  1  0  0  0  0
  5  6  1  0  0  0  0
  6  7  1  0  0  0  0
  6 11  2  0  0  0  0
  7  8  2  0  0  0  0
  8  9  1  0  0  0  0
  9 10  2  0  0  0  0
 10 11  1  0  0  0  0
M  END
> <Acceptable>
true

> <IC50>
N/A

$$$$

Generated by Molecular Materials Informatics

 12 12  0  0  0  0  0  0  0  0999 V2000
   -4.1569    0.8000    0.0000 O   0  0  0  0  0  0  0  0  0  0  0  0
   -2.7713    0.0000    0.0000 C   0  0  0  0  0  0  0  0  0  0  0  0
   -2.7713   -1.6000    0.0000 C   0  0  0  0  0  0  0  0  0  0  0  0
   -1.3856   -2.4000    0.0000 C   0  0  0  0  0  0  0  0  0  0  0  0
    0.0000   -1.6000    0.0000 C   0  0  0  0  0  0  0  0  0  0  0  0
    0.0000    0.0000    0.0000 C   0  0  0  0  0  0  0  0  0  0  0  0
   -1.3856    0.8000    0.0000 C   0  0  0  0  0  0  0  0  0  0  0  0
    1.3856    0.8000    0.0000 C   0  0  0  0  0  0  0  0  0  0  0  0
    1.3856    2.4000    0.0000 O   0  0  0  0  0  0  0  0  0  0  0  0
    2.7713    0.0000    0.0000 C   0  0  0  0  0  0  0  0  0  0  0  0
    4.1569    0.8000    0.0000 N   0  0  0  0  0  0  0  0  0  0  0  0
    5.5426    0.0000    0.0000 C   0  0  0  0  0  0  0  0  0  0  0  0
  1  2  1  0  0  0  0
  2  3  1  0  0  0  0
  2  7  2  0  0  0  0
  3  4  2  0  0  0  0
  4  5  1  0  0  0  0
  5  6  2  0  0  0  0
  6  7  1  0  0  0  0
  6  8  1  0  0  0  0
  8  9  1  1  0  0  0
  8 10  1  0  0  0  0
 10 11  1  0  0  0  0
 11 12  1  0  0  0  0
M  END
> <Acceptable>
true

> <IC50>
N/A

$$$$

Generated by Molecular Materials Informatics

 11 11  0  0  0  0  0  0  0  0999 V2000
    2.4000    1.3856    0.0000 O   0  0  0  0  0  0  0  0  0  0  0  0
    1.6000    0.0000    0.0000 C   0  0  0  0  0  0  0  0  0  0  0  0
    0.0000    0.0000    0.0000 C   0  0  0  0  0  0  0  0  0  0  0  0
   -0.8000   -1.3856    0.0000 C   0  0  0  0  0  0  0  0  0  0  0  0
   -2.4000   -1.3856    0.0000 C   0  0  0  0  0  0  0  0  0  0  0  0
   -3.2000    0.0000    0.0000 C   0  0  0  0  0  0  0  0  0  0  0  0
   -2.4000    1.3856    0.0000 C   0  0  0  0  0  0  0  0  0  0  0  0
   -0.8000    1.3856    0.0000 C   0  0  0  0  0  0  0  0  0  0  0  0
    2.4000   -1.3856    0.0000 C   0  0  0  0  0  0  0  0  0  0  0  0
    1.6000   -2.7713    0.0000 N   0  0  0  0  0  0  0  0  0  0  0  0
    4.0000   -1.3856    0.0000 C   0  0  0  0  0  0  0  0  0  0  0  0
  2  1  1  1  0  0  0
  2  3  1  0  0  0  0
  2  9  1  0  0  0  0
  3  4  1  0  0  0  0
  3  8  2  0  0  0  0
  4  5  2  0  0  0  0
  5  6  1  0  0  0  0
  6  7  2  0  0  0  0
  7  8  1  0  0  0  0
  9 10  1  1  0  0  0
  9 11  1  0  0  0  0
M  END
> <Acceptable>
true

> <IC50>
N/A

$$$$

Generated by Molecular Materials Informatics

 19 20  0  0  0  0  0  0  0  0999 V2000
   -2.4000    1.3856    0.0000 O   0  0  0  0  0  0  0  0  0  0  0  0
   -4.0000    1.3856    0.0000 C   0  0  0  0  0  0  0  0  0  0  0  0
   -4.8000    2.7713    0.0000 C   0  0  0  0  0  0  0  0  0  0  0  0
   -6.4000    2.7713    0.0000 N   0  0  0  0  0  0  0  0  0  0  0  0
   -7.2000    1.3856    0.0000 C   0  0  0  0  0  0  0  0  0  0  0  0
   -7.2000    4.1569    0.0000 C   0  0  0  0  0  0  0  0  0  0  0  0
   -1.6000    0.0000    0.0000 C   0  0  0  0  0  0  0  0  0  0  0  0
   -2.4000   -1.3856    0.0000 C   0  0  0  0  0  0  0  0  0  0  0  0
   -1.6000   -2.7713    0.0000 C   0  0  0  0  0  0  0  0  0  0  0  0
    0.0000   -2.7713    0.0000 C   0  0  0  0  0  0  0  0  0  0  0  0
    0.8000   -1.3856    0.0000 C   0  0  0  0  0  0  0  0  0  0  0  0
    0.0000    0.0000    0.0000 C   0  0  0  0  0  0  0  0  0  0  0  0
    0.8000    1.3856    0.0000 C   0  0  0  0  0  0  0  0  0  0  0  0
    2.4000    1.3856    0.0000 C   0  0  0  0  0  0  0  0  0  0  0  0
    3.2000    0.0000    0.0000 C   0  0  0  0  0  0  0  0  0  0  0  0
    4.8000    0.0000    0.0000 C   0  0  0  0  0  0  0  0  0  0  0  0
    5.6000    1.3856    0.0000 C   0  0  0  0  0  0  0  0  0  0  0  0
    4.8000    2.7713    0.0000 C   0  0  0  0  0  0  0  0  0  0  0  0
    3.2000    2.7713    0.0000 C   0  0  0  0  0  0  0  0  0  0  0  0
  1  2  1  0  0  0  0
  1  7  1  0  0  0  0
  2  3  1  0  0  0  0
  3  4  1  0  0  0  0
  4  5  1  0  0  0  0
  4  6  1  0  0  0  0
  7  8  1  0  0  0  0
  7 12  2  0  0  0  0
  8  9  2  0  0  0  0
  9 10  1  0  0  0  0
 10 11  2  0  0  0  0
 11 12  1  0  0  0  0
 12 13  1  0  0  0  0
 13 14  1  0  0  0  0
 14 15  1  0  0  0  0
 14 19  2  0  0  0  0
 15 16  2  0  0  0  0
 16 17  1  0  0  0  0
 17 18  2  0  0  0  0
 18 19  1  0  0  0  0
M  END
> <Acceptable>
true

> <IC50>
N/A

$$$$

Generated by Molecular Materials Informatics

 16 17  0  0  0  0  0  0  0  0999 V2000
   -2.4000    1.3856    0.0000 O   0  0  0  0  0  0  0  0  0  0  0  0
   -1.6000    0.0000    0.0000 C   0  0  0  0  0  0  0  0  0  0  0  0
   -2.4000   -1.3856    0.0000 O   0  0  0  0  0  0  0  0  0  0  0  0
   -4.0000   -1.3856    0.0000 C   0  0  0  0  0  0  0  0  0  0  0  0
   -4.8000    0.0000    0.0000 C   0  0  0  0  0  0  0  0  0  0  0  0
   -6.4000    0.0000    0.0000 C   0  0  0  0  0  0  0  0  0  0  0  0
   -7.2000   -1.3856    0.0000 C   0  0  0  0  0  0  0  0  0  0  0  0
   -6.4000   -2.7713    0.0000 C   0  0  0  0  0  0  0  0  0  0  0  0
   -4.8000   -2.7713    0.0000 C   0  0  0  0  0  0  0  0  0  0  0  0
    0.0000    0.0000    0.0000 C   0  0  0  0  0  0  0  0  0  0  0  0
    0.8000   -1.3856    0.0000 C   0  0  0  0  0  0  0  0  0  0  0  0
    2.4000   -1.3856    0.0000 C   0  0  0  0  0  0  0  0  0  0  0  0
    3.2000    0.0000    0.0000 C   0  0  0  0  0  0  0  0  0  0  0  0
    2.4000    1.3856    0.0000 C   0  0  0  0  0  0  0  0  0  0  0  0
    0.8000    1.3856    0.0000 C   0  0  0  0  0  0  0  0  0  0  0  0
    0.0000    2.7713    0.0000 O   0  0  0  0  0  0  0  0  0  0  0  0
  1  2  2  0  0  0  0
  2  3  1  0  0  0  0
  2 10  1  0  0  0  0
  3  4  1  0  0  0  0
  4  5  1  0  0  0  0
  4  9  2  0  0  0  0
  5  6  2  0  0  0  0
  6  7  1  0  0  0  0
  7  8  2  0  0  0  0
  8  9  1  0  0  0  0
 10 11  1  0  0  0  0
 10 15  2  0  0  0  0
 11 12  2  0  0  0  0
 12 13  1  0  0  0  0
 13 14  2  0  0  0  0
 14 15  1  0  0  0  0
 15 16  1  0  0  0  0
M  END
> <Acceptable>
true

> <IC50>
N/A

$$$$

Generated by Molecular Materials Informatics

 19 21  0  0  0  0  0  0  0  0999 V2000
   -4.1235   -0.3710    0.0000 O   0  0  0  0  0  0  0  0  0  0  0  0
   -2.5323   -0.5383    0.0000 C   0  0  0  0  0  0  0  0  0  0  0  0
   -1.7323   -1.9239    0.0000 N   0  0  0  0  0  0  0  0  0  0  0  0
   -0.1672   -1.5912    0.0000 C   0  0  0  0  0  0  0  0  0  0  0  0
    1.0218   -2.6618    0.0000 O   0  0  0  0  0  0  0  0  0  0  0  0
    0.0000    0.0000    0.0000 C   0  0  0  0  0  0  0  0  0  0  0  0
   -1.4617    0.6508    0.0000 N   0  0  0  0  0  0  0  0  0  0  0  0
    1.5650   -0.3327    0.0000 C   0  0  0  0  0  0  0  0  0  0  0  0
    2.0595   -1.8543    0.0000 C   0  0  0  0  0  0  0  0  0  0  0  0
    3.6245   -2.1870    0.0000 C   0  0  0  0  0  0  0  0  0  0  0  0
    4.6951   -0.9980    0.0000 C   0  0  0  0  0  0  0  0  0  0  0  0
    4.2007    0.5237    0.0000 C   0  0  0  0  0  0  0  0  0  0  0  0
    2.6356    0.8564    0.0000 C   0  0  0  0  0  0  0  0  0  0  0  0
    0.4944    1.5217    0.0000 C   0  0  0  0  0  0  0  0  0  0  0  0
    2.0595    1.8543    0.0000 C   0  0  0  0  0  0  0  0  0  0  0  0
    2.5539    3.3760    0.0000 C   0  0  0  0  0  0  0  0  0  0  0  0
    1.4833    4.5651    0.0000 C   0  0  0  0  0  0  0  0  0  0  0  0
   -0.0818    4.2324    0.0000 C   0  0  0  0  0  0  0  0  0  0  0  0
   -0.5762    2.7107    0.0000 C   0  0  0  0  0  0  0  0  0  0  0  0
  1  2  2  0  0  0  0
  2  3  1  0  0  0  0
  2  7  1  0  0  0  0
  3  4  1  0  0  0  0
  4  5  2  0  0  0  0
  4  6  1  0  0  0  0
  6  7  1  0  0  0  0
  6  8  1  0  0  0  0
  6 14  1  0  0  0  0
  8  9  1  0  0  0  0
  8 13  2  0  0  0  0
  9 10  2  0  0  0  0
 10 11  1  0  0  0  0
 11 12  2  0  0  0  0
 12 13  1  0  0  0  0
 14 15  1  0  0  0  0
 14 19  2  0  0  0  0
 15 16  2  0  0  0  0
 16 17  1  0  0  0  0
 17 18  2  0  0  0  0
 18 19  1  0  0  0  0
M  END
> <Acceptable>
true

> <IC50>
240

$$$$

Generated by Molecular Materials Informatics

 15 16  0  0  0  0  0  0  0  0999 V2000
    3.3856   -2.3831    0.0000 O   0  0  0  0  0  0  0  0  0  0  0  0
    1.9239   -1.7323    0.0000 C   0  0  0  0  0  0  0  0  0  0  0  0
    0.5383   -2.5323    0.0000 O   0  0  0  0  0  0  0  0  0  0  0  0
   -0.6508   -1.4617    0.0000 C   0  0  0  0  0  0  0  0  0  0  0  0
    0.0000    0.0000    0.0000 C   0  0  0  0  0  0  0  0  0  0  0  0
   -0.8000    1.3856    0.0000 C   0  0  0  0  0  0  0  0  0  0  0  0
   -2.4000    1.3856    0.0000 C   0  0  0  0  0  0  0  0  0  0  0  0
   -3.3405    0.0912    0.0000 N   0  0  0  0  0  0  0  0  0  0  0  0
   -2.8460   -1.4305    0.0000 C   0  0  0  0  0  0  0  0  0  0  0  0
   -4.8621    0.5856    0.0000 C   0  0  0  0  0  0  0  0  0  0  0  0
   -4.8621    2.1856    0.0000 N   0  0  0  0  0  0  0  0  0  0  0  0
   -3.3405    2.6801    0.0000 C   0  0  0  0  0  0  0  0  0  0  0  0
    1.5912   -0.1672    0.0000 C   0  0  0  0  0  0  0  0  0  0  0  0
    2.6618    1.0218    0.0000 C   0  0  0  0  0  0  0  0  0  0  0  0
    4.2269    0.6891    0.0000 C   0  0  0  0  0  0  0  0  0  0  0  0
  1  2  2  0  0  0  0
  2  3  1  0  0  0  0
  2 13  1  0  0  0  0
  3  4  1  0  0  0  0
  4  5  1  0  0  0  0
  5  6  1  6  0  0  0
  5 13  1  0  0  0  0
  6  7  1  0  0  0  0
  7  8  1  0  0  0  0
  7 12  2  0  0  0  0
  8  9  1  0  0  0  0
  8 10  1  0  0  0  0
 10 11  2  0  0  0  0
 11 12  1  0  0  0  0
 13 14  1  6  0  0  0
 14 15  1  0  0  0  0
M  END
> <Acceptable>
true

> <IC50>
N/A

$$$$

Generated by Molecular Materials Informatics

 20 22  0  0  0  0  0  0  0  0999 V2000
   -2.7713   -1.6000    0.0000 O   0  0  0  0  0  0  0  0  0  0  0  0
   -2.7713    0.0000    0.0000 C   0  0  0  0  0  0  0  0  0  0  0  0
   -4.1569    0.8000    0.0000 N   0  0  0  0  0  0  0  0  0  0  0  0
   -5.5426    0.0000    0.0000 C   0  0  0  0  0  0  0  0  0  0  0  0
   -5.5426   -1.6000    0.0000 C   0  0  0  0  0  0  0  0  0  0  0  0
   -4.1569   -2.4000    0.0000 C   0  0  0  0  0  0  0  0  0  0  0  0
   -6.9282   -2.4000    0.0000 C   0  0  0  0  0  0  0  0  0  0  0  0
   -8.3138   -1.6000    0.0000 C   0  0  0  0  0  0  0  0  0  0  0  0
   -8.3138    0.0000    0.0000 C   0  0  0  0  0  0  0  0  0  0  0  0
   -6.9282    0.8000    0.0000 C   0  0  0  0  0  0  0  0  0  0  0  0
   -6.9282    2.4000    0.0000 C   0  0  0  0  0  0  0  0  0  0  0  0
   -1.3856    0.8000    0.0000 C   0  0  0  0  0  0  0  0  0  0  0  0
    0.0000    0.0000    0.0000 C   0  0  0  0  0  0  0  0  0  0  0  0
    1.3856   -0.8000    0.0000 N   0  0  0  0  0  0  0  0  0  0  0  0
    1.0530   -2.3650    0.0000 C   0  0  0  0  0  0  0  0  0  0  0  0
   -0.5383   -2.5323    0.0000 C   0  0  0  0  0  0  0  0  0  0  0  0
   -1.1890   -1.0706    0.0000 C   0  0  0  0  0  0  0  0  0  0  0  0
    2.5747    0.2706    0.0000 C   0  0  0  0  0  0  0  0  0  0  0  0
    1.9239    1.7323    0.0000 C   0  0  0  0  0  0  0  0  0  0  0  0
    0.3327    1.5650    0.0000 C   0  0  0  0  0  0  0  0  0  0  0  0
  1  2  2  0  0  0  0
  2  3  1  0  0  0  0
  2 12  1  0  0  0  0
  3  4  1  0  0  0  0
  4  5  1  0  0  0  0
  4 10  2  0  0  0  0
  5  6  1  0  0  0  0
  5  7  2  0  0  0  0
  7  8  1  0  0  0  0
  8  9  2  0  0  0  0
  9 10  1  0  0  0  0
 10 11  1  0  0  0  0
 13 12  1  6  0  0  0
 13 14  1  0  0  0  0
 13 17  1  0  0  0  0
 13 20  1  0  0  0  0
 14 15  1  1  0  0  0
 14 18  1  0  0  0  0
 15 16  1  0  0  0  0
 16 17  1  0  0  0  0
 18 19  1  0  0  0  0
 19 20  1  0  0  0  0
M  END
> <Acceptable>
false

> <IC50>
20.4

$$$$

Generated by Molecular Materials Informatics

 34 38  0  0  0  0  0  0  0  0999 V2000
    7.9887    6.8015    0.0000 F   0  0  0  0  0  0  0  0  0  0  0  0
    8.4831    5.2798    0.0000 C   0  0  0  0  0  0  0  0  0  0  0  0
   10.0482    4.9472    0.0000 C   0  0  0  0  0  0  0  0  0  0  0  0
   10.5426    3.4255    0.0000 C   0  0  0  0  0  0  0  0  0  0  0  0
    9.4720    2.2365    0.0000 C   0  0  0  0  0  0  0  0  0  0  0  0
    7.9069    2.5691    0.0000 C   0  0  0  0  0  0  0  0  0  0  0  0
    7.4125    4.0908    0.0000 C   0  0  0  0  0  0  0  0  0  0  0  0
    9.9664    0.7148    0.0000 C   0  0  0  0  0  0  0  0  0  0  0  0
    8.8958   -0.4743    0.0000 C   0  0  0  0  0  0  0  0  0  0  0  0
    7.3308   -0.1416    0.0000 C   0  0  0  0  0  0  0  0  0  0  0  0
    6.2601   -1.3306    0.0000 C   0  0  0  0  0  0  0  0  0  0  0  0
    4.6951   -0.9980    0.0000 N   0  0  0  0  0  0  0  0  0  0  0  0
    3.6245   -2.1870    0.0000 C   0  0  0  0  0  0  0  0  0  0  0  0
    2.0595   -1.8544    0.0000 C   0  0  0  0  0  0  0  0  0  0  0  0
    1.5650   -0.3327    0.0000 C   0  0  0  0  0  0  0  0  0  0  0  0
    0.0000    0.0000    0.0000 N   0  3  0  0  0  0  0  0  0  0  0  0
   -1.1890   -1.0706    0.0000 C   0  0  0  0  0  0  0  0  0  0  0  0
   -1.1890   -2.6706    0.0000 C   0  0  0  0  0  0  0  0  0  0  0  0
   -2.5747   -3.4706    0.0000 C   0  0  0  0  0  0  0  0  0  0  0  0
   -3.9603   -2.6706    0.0000 C   0  0  0  0  0  0  0  0  0  0  0  0
   -3.9603   -1.0706    0.0000 C   0  0  0  0  0  0  0  0  0  0  0  0
   -2.5747   -0.2706    0.0000 C   0  0  0  0  0  0  0  0  0  0  0  0
   -2.2420    1.2944    0.0000 N   0  0  0  0  0  0  0  0  0  0  0  0
   -0.6508    1.4617    0.0000 C   0  0  0  0  0  0  0  0  0  0  0  0
    0.1492    2.8473    0.0000 O   0  0  0  0  0  0  0  0  0  0  0  0
    2.6356    0.8564    0.0000 C   0  0  0  0  0  0  0  0  0  0  0  0
    4.2007    0.5237    0.0000 C   0  0  0  0  0  0  0  0  0  0  0  0
   11.5314    0.3821    0.0000 C   0  0  0  0  0  0  0  0  0  0  0  0
   12.6020    1.5711    0.0000 C   0  0  0  0  0  0  0  0  0  0  0  0
   14.1671    1.2385    0.0000 C   0  0  0  0  0  0  0  0  0  0  0  0
   14.6615   -0.2832    0.0000 C   0  0  0  0  0  0  0  0  0  0  0  0
   16.2265   -0.6159    0.0000 F   0  0  0  0  0  0  0  0  0  0  0  0
   13.5909   -1.4722    0.0000 C   0  0  0  0  0  0  0  0  0  0  0  0
   12.0259   -1.1396    0.0000 C   0  0  0  0  0  0  0  0  0  0  0  0
  1  2  1  0  0  0  0
  2  3  1  0  0  0  0
  2  7  2  0  0  0  0
  3  4  2  0  0  0  0
  4  5  1  0  0  0  0
  5  6  2  0  0  0  0
  5  8  1  0  0  0  0
  6  7  1  0  0  0  0
  8  9  1  0  0  0  0
  8 28  1  0  0  0  0
  9 10  1  0  0  0  0
 10 11  1  0  0  0  0
 12 11  1  6  0  0  0
 12 13  1  0  0  0  0
 12 27  1  0  0  0  0
 13 14  1  0  0  0  0
 14 15  1  0  0  0  0
 15 16  1  6  0  0  0
 15 26  1  0  0  0  0
 16 17  2  0  0  0  0
 16 24  1  0  0  0  0
 17 18  1  0  0  0  0
 17 22  1  0  0  0  0
 18 19  2  0  0  0  0
 19 20  1  0  0  0  0
 20 21  2  0  0  0  0
 21 22  1  0  0  0  0
 22 23  2  0  0  0  0
 23 24  1  0  0  0  0
 24 25  2  0  0  0  0
 26 27  1  0  0  0  0
 28 29  1  0  0  0  0
 28 34  2  0  0  0  0
 29 30  2  0  0  0  0
 30 31  1  0  0  0  0
 31 32  1  0  0  0  0
 31 33  2  0  0  0  0
 33 34  1  0  0  0  0
M  CHG  1  16   1
M  END
> <Acceptable>
false

> <IC50>
0.018

$$$$

Generated by Molecular Materials Informatics

 25 27  0  0  0  0  0  0  0  0999 V2000
   -1.4617    0.6508    0.0000 S   0  0  0  0  0  0  0  0  0  0  0  0
   -2.5323   -0.5383    0.0000 C   0  0  0  0  0  0  0  0  0  0  0  0
   -4.1235   -0.3710    0.0000 O   0  0  0  0  0  0  0  0  0  0  0  0
   -1.7323   -1.9239    0.0000 N   0  0  0  0  0  0  0  0  0  0  0  0
   -0.1672   -1.5912    0.0000 C   0  0  0  0  0  0  0  0  0  0  0  0
    1.0218   -2.6618    0.0000 O   0  0  0  0  0  0  0  0  0  0  0  0
    0.0000    0.0000    0.0000 C   0  0  0  0  0  0  0  0  0  0  0  0
    1.3856    0.8000    0.0000 C   0  0  0  0  0  0  0  0  0  0  0  0
    2.7713    0.0000    0.0000 C   0  0  0  0  0  0  0  0  0  0  0  0
    2.7713   -1.6000    0.0000 C   0  0  0  0  0  0  0  0  0  0  0  0
    4.1569   -2.4000    0.0000 C   0  0  0  0  0  0  0  0  0  0  0  0
    5.5426   -1.6000    0.0000 C   0  0  0  0  0  0  0  0  0  0  0  0
    6.9282   -2.4000    0.0000 O   0  0  0  0  0  0  0  0  0  0  0  0
    8.3138   -1.6000    0.0000 C   0  0  0  0  0  0  0  0  0  0  0  0
    9.6995   -2.4000    0.0000 C   0  0  0  0  0  0  0  0  0  0  0  0
   11.0851   -1.6000    0.0000 C   0  0  0  0  0  0  0  0  0  0  0  0
   12.4708   -2.4000    0.0000 N   0  0  0  0  0  0  0  0  0  0  0  0
   13.8564   -1.6000    0.0000 C   0  0  0  0  0  0  0  0  0  0  0  0
   13.8564    0.0000    0.0000 C   0  0  0  0  0  0  0  0  0  0  0  0
   12.4708    0.8000    0.0000 C   0  0  0  0  0  0  0  0  0  0  0  0
   11.0851    0.0000    0.0000 C   0  0  0  0  0  0  0  0  0  0  0  0
   15.2420    0.8000    0.0000 C   0  0  0  0  0  0  0  0  0  0  0  0
   16.6277    0.0000    0.0000 C   0  0  0  0  0  0  0  0  0  0  0  0
    5.5426    0.0000    0.0000 C   0  0  0  0  0  0  0  0  0  0  0  0
    4.1569    0.8000    0.0000 C   0  0  0  0  0  0  0  0  0  0  0  0
  1  2  1  0  0  0  0
  1  7  1  0  0  0  0
  2  3  2  0  0  0  0
  2  4  1  0  0  0  0
  4  5  1  0  0  0  0
  5  6  2  0  0  0  0
  5  7  1  0  0  0  0
  7  8  1  1  0  0  0
  8  9  1  0  0  0  0
  9 10  1  0  0  0  0
  9 25  2  0  0  0  0
 10 11  2  0  0  0  0
 11 12  1  0  0  0  0
 12 13  1  0  0  0  0
 12 24  2  0  0  0  0
 13 14  1  0  0  0  0
 14 15  1  0  0  0  0
 15 16  1  0  0  0  0
 16 17  1  0  0  0  0
 16 21  2  0  0  0  0
 17 18  2  0  0  0  0
 18 19  1  0  0  0  0
 19 20  2  0  0  0  0
 19 22  1  0  0  0  0
 20 21  1  0  0  0  0
 22 23  1  0  0  0  0
 24 25  1  0  0  0  0
M  END
> <Acceptable>
true

> <IC50>
N/A

$$$$

Generated by Molecular Materials Informatics

 23 25  0  0  0  0  0  0  0  0999 V2000
    0.0000    0.0000    0.0000 S   0  0  0  0  0  0  0  0  0  0  0  0
   -1.5035    0.5472    0.0000 O   0  0  0  0  0  0  0  0  0  0  0  0
    0.2778    1.5757    0.0000 O   0  0  0  0  0  0  0  0  0  0  0  0
    1.6000    0.0000    0.0000 N   0  0  0  0  0  0  0  0  0  0  0  0
    2.4000    1.3856    0.0000 C   0  0  0  0  0  0  0  0  0  0  0  0
    2.4000   -1.3856    0.0000 C   0  0  0  0  0  0  0  0  0  0  0  0
    1.6000   -2.7713    0.0000 C   0  0  0  0  0  0  0  0  0  0  0  0
    2.4000   -4.1569    0.0000 O   0  0  0  0  0  0  0  0  0  0  0  0
    0.0000   -2.7713    0.0000 C   0  0  0  0  0  0  0  0  0  0  0  0
   -0.8000   -4.1569    0.0000 C   0  0  0  0  0  0  0  0  0  0  0  0
   -2.4000   -4.1569    0.0000 C   0  0  0  0  0  0  0  0  0  0  0  0
   -3.2000   -2.7713    0.0000 C   0  0  0  0  0  0  0  0  0  0  0  0
   -2.4000   -1.3856    0.0000 C   0  0  0  0  0  0  0  0  0  0  0  0
   -0.8000   -1.3856    0.0000 C   0  0  0  0  0  0  0  0  0  0  0  0
    4.0000   -1.3856    0.0000 C   0  0  0  0  0  0  0  0  0  0  0  0
    4.8000    0.0000    0.0000 O   0  0  0  0  0  0  0  0  0  0  0  0
    4.8000   -2.7713    0.0000 N   0  0  0  0  0  0  0  0  0  0  0  0
    6.4000   -2.7713    0.0000 C   0  0  0  0  0  0  0  0  0  0  0  0
    7.2000   -1.3856    0.0000 N   0  0  0  0  0  0  0  0  0  0  0  0
    8.8000   -1.3856    0.0000 C   0  0  0  0  0  0  0  0  0  0  0  0
    9.6000   -2.7713    0.0000 C   0  0  0  0  0  0  0  0  0  0  0  0
    8.8000   -4.1569    0.0000 C   0  0  0  0  0  0  0  0  0  0  0  0
    7.2000   -4.1569    0.0000 C   0  0  0  0  0  0  0  0  0  0  0  0
  1  2  2  0  0  0  0
  1  3  2  0  0  0  0
  1  4  1  0  0  0  0
  1 14  1  0  0  0  0
  4  5  1  1  0  0  0
  4  6  1  0  0  0  0
  6  7  2  0  0  0  0
  6 15  1  0  0  0  0
  7  8  1  0  0  0  0
  7  9  1  0  0  0  0
  9 10  1  0  0  0  0
  9 14  2  0  0  0  0
 10 11  2  0  0  0  0
 11 12  1  0  0  0  0
 12 13  2  0  0  0  0
 13 14  1  0  0  0  0
 15 16  2  0  0  0  0
 15 17  1  0  0  0  0
 17 18  1  0  0  0  0
 18 19  1  0  0  0  0
 18 23  2  0  0  0  0
 19 20  2  0  0  0  0
 20 21  1  0  0  0  0
 21 22  2  0  0  0  0
 22 23  1  0  0  0  0
M  END
> <Acceptable>
true

> <IC50>
N/A

$$$$

Generated by Molecular Materials Informatics

 25 26  0  0  0  0  0  0  0  0999 V2000
   -3.2000    5.5426    0.0000 Cl  0  0  0  0  0  0  0  0  0  0  0  0
   -2.4000    4.1569    0.0000 C   0  0  0  0  0  0  0  0  0  0  0  0
   -0.8000    4.1569    0.0000 C   0  0  0  0  0  0  0  0  0  0  0  0
    0.0000    2.7713    0.0000 C   0  0  0  0  0  0  0  0  0  0  0  0
    1.6000    2.7713    0.0000 N   0  0  0  0  0  0  0  0  0  0  0  0
    2.4000    1.3856    0.0000 C   0  0  0  0  0  0  0  0  0  0  0  0
    1.6000    0.0000    0.0000 N   0  0  0  0  0  0  0  0  0  0  0  0
    0.0000    0.0000    0.0000 S   0  0  0  0  0  0  0  0  0  0  0  0
    0.2778   -1.5757    0.0000 O   0  0  0  0  0  0  0  0  0  0  0  0
   -1.5035   -0.5472    0.0000 O   0  0  0  0  0  0  0  0  0  0  0  0
   -0.8000    1.3856    0.0000 C   0  0  0  0  0  0  0  0  0  0  0  0
   -2.4000    1.3856    0.0000 C   0  0  0  0  0  0  0  0  0  0  0  0
   -3.2000    2.7713    0.0000 C   0  0  0  0  0  0  0  0  0  0  0  0
   -4.8000    2.7713    0.0000 S   0  0  0  0  0  0  0  0  0  0  0  0
   -4.8000    4.3713    0.0000 O   0  0  0  0  0  0  0  0  0  0  0  0
   -4.8000    1.1713    0.0000 O   0  0  0  0  0  0  0  0  0  0  0  0
   -6.4000    2.7713    0.0000 N   0  0  0  0  0  0  0  0  0  0  0  0
    2.4000   -1.3856    0.0000 C   0  0  0  0  0  0  0  0  0  0  0  0
    4.0000    1.3856    0.0000 C   0  0  0  0  0  0  0  0  0  0  0  0
    4.8000    2.7713    0.0000 S   0  0  0  0  0  0  0  0  0  0  0  0
    6.4000    2.7713    0.0000 C   0  0  0  0  0  0  0  0  0  0  0  0
    7.2000    4.1569    0.0000 C   0  0  0  0  0  0  0  0  0  0  0  0
    6.4000    5.5426    0.0000 F   0  0  0  0  0  0  0  0  0  0  0  0
    8.8000    4.1569    0.0000 F   0  0  0  0  0  0  0  0  0  0  0  0
    8.0000    5.5426    0.0000 F   0  0  0  0  0  0  0  0  0  0  0  0
  1  2  1  0  0  0  0
  2  3  1  0  0  0  0
  2 13  2  0  0  0  0
  3  4  2  0  0  0  0
  4  5  1  0  0  0  0
  4 11  1  0  0  0  0
  5  6  1  0  0  0  0
  6  7  1  0  0  0  0
  6 19  1  1  0  0  0
  7  8  1  0  0  0  0
  7 18  1  6  0  0  0
  8  9  2  0  0  0  0
  8 10  2  0  0  0  0
  8 11  1  0  0  0  0
 11 12  2  0  0  0  0
 12 13  1  0  0  0  0
 13 14  1  0  0  0  0
 14 15  2  0  0  0  0
 14 16  2  0  0  0  0
 14 17  1  0  0  0  0
 19 20  1  0  0  0  0
 20 21  1  0  0  0  0
 21 22  1  0  0  0  0
 22 23  1  0  0  0  0
 22 24  1  0  0  0  0
 22 25  1  0  0  0  0
M  END
> <Acceptable>
true

> <IC50>
N/A

$$$$

Generated by Molecular Materials Informatics

 14 15  0  0  0  0  0  0  0  0999 V2000
    1.5217    0.4944    0.0000 S   0  0  0  0  0  0  0  0  0  0  0  0
    0.0000    0.0000    0.0000 C   0  0  0  0  0  0  0  0  0  0  0  0
   -1.3856    0.8000    0.0000 C   0  0  0  0  0  0  0  0  0  0  0  0
   -2.7713    0.0000    0.0000 C   0  0  0  0  0  0  0  0  0  0  0  0
   -4.1569    0.8000    0.0000 N   0  0  0  0  0  0  0  0  0  0  0  0
   -5.5426    0.0000    0.0000 C   0  0  0  0  0  0  0  0  0  0  0  0
   -6.9282    0.8000    0.0000 C   0  0  0  0  0  0  0  0  0  0  0  0
   -8.3138    0.0000    0.0000 C   0  0  0  0  0  0  0  0  0  0  0  0
   -2.7713   -1.6000    0.0000 C   0  0  0  0  0  0  0  0  0  0  0  0
   -1.3856   -2.4000    0.0000 C   0  0  0  0  0  0  0  0  0  0  0  0
    0.0000   -1.6000    0.0000 C   0  0  0  0  0  0  0  0  0  0  0  0
    1.5217   -2.0944    0.0000 N   0  0  0  0  0  0  0  0  0  0  0  0
    2.4621   -0.8000    0.0000 C   0  0  0  0  0  0  0  0  0  0  0  0
    4.0621   -0.8000    0.0000 N   0  0  0  0  0  0  0  0  0  0  0  0
  1  2  1  0  0  0  0
  1 13  1  0  0  0  0
  2  3  1  0  0  0  0
  2 11  2  0  0  0  0
  3  4  1  0  0  0  0
  4  5  1  6  0  0  0
  4  9  1  0  0  0  0
  5  6  1  0  0  0  0
  6  7  1  0  0  0  0
  7  8  1  0  0  0  0
  9 10  1  0  0  0  0
 10 11  1  0  0  0  0
 11 12  1  0  0  0  0
 12 13  2  0  0  0  0
 13 14  1  0  0  0  0
M  END
> <Acceptable>
true

> <IC50>
N/A

$$$$

Generated by Molecular Materials Informatics

 28 31  0  0  0  0  0  0  0  0999 V2000
   -8.3138    6.4000    0.0000 O   0  0  0  0  0  0  0  0  0  0  0  0
   -9.8667    2.4088    0.0000 O   0  0  0  0  0  0  0  0  0  0  0  0
    4.1569    2.4000    0.0000 O   0  0  0  0  0  0  0  0  0  0  0  0
    4.1569   -0.8000    0.0000 O   0  0  0  0  0  0  0  0  0  0  0  0
   -4.1569    2.4000    0.0000 N   0  0  0  0  0  0  0  0  0  0  0  0
   -6.9282    4.0000    0.0000 N   0  0  0  0  0  0  0  0  0  0  0  0
   -1.3856    2.4000    0.0000 N   0  0  0  0  0  0  0  0  0  0  0  0
   -2.7713    0.0000    0.0000 N   0  0  0  0  0  0  0  0  0  0  0  0
   -1.3856   -2.4000    0.0000 N   0  0  0  0  0  0  0  0  0  0  0  0
   -4.1569    4.0000    0.0000 C   0  0  0  0  0  0  0  0  0  0  0  0
   -5.5426    1.6000    0.0000 C   0  0  0  0  0  0  0  0  0  0  0  0
   -5.5426    4.8000    0.0000 C   0  0  0  0  0  0  0  0  0  0  0  0
   -6.9282    2.4000    0.0000 C   0  0  0  0  0  0  0  0  0  0  0  0
   -2.7713    1.6000    0.0000 C   0  0  0  0  0  0  0  0  0  0  0  0
   -8.3138    4.8000    0.0000 C   0  0  0  0  0  0  0  0  0  0  0  0
    0.0000    1.6000    0.0000 C   0  0  0  0  0  0  0  0  0  0  0  0
   -9.6995    4.0000    0.0000 C   0  0  0  0  0  0  0  0  0  0  0  0
    0.0000    0.0000    0.0000 C   0  0  0  0  0  0  0  0  0  0  0  0
   -1.3856   -0.8000    0.0000 C   0  0  0  0  0  0  0  0  0  0  0  0
    1.3856    2.4000    0.0000 C   0  0  0  0  0  0  0  0  0  0  0  0
    1.3856   -0.8000    0.0000 C   0  0  0  0  0  0  0  0  0  0  0  0
  -11.1612    4.6508    0.0000 C   0  0  0  0  0  0  0  0  0  0  0  0
    2.7713    1.6000    0.0000 C   0  0  0  0  0  0  0  0  0  0  0  0
    2.7713    0.0000    0.0000 C   0  0  0  0  0  0  0  0  0  0  0  0
  -12.2318    3.4617    0.0000 C   0  0  0  0  0  0  0  0  0  0  0  0
  -11.4318    2.0761    0.0000 C   0  0  0  0  0  0  0  0  0  0  0  0
    4.1569    4.0000    0.0000 C   0  0  0  0  0  0  0  0  0  0  0  0
    4.1569   -2.4000    0.0000 C   0  0  0  0  0  0  0  0  0  0  0  0
  1 15  2  0  0  0  0
  2 17  1  0  0  0  0
  2 26  1  0  0  0  0
  3 23  1  0  0  0  0
  3 27  1  0  0  0  0
  4 24  1  0  0  0  0
  4 28  1  0  0  0  0
  5 10  1  0  0  0  0
  5 11  1  0  0  0  0
  5 14  1  0  0  0  0
  6 12  1  0  0  0  0
  6 13  1  0  0  0  0
  6 15  1  0  0  0  0
  7 14  1  0  0  0  0
  7 16  2  0  0  0  0
  8 14  2  0  0  0  0
  8 19  1  0  0  0  0
  9 19  1  0  0  0  0
 10 12  1  0  0  0  0
 11 13  1  0  0  0  0
 15 17  1  0  0  0  0
 16 18  1  0  0  0  0
 16 20  1  0  0  0  0
 17 22  2  0  0  0  0
 18 19  2  0  0  0  0
 18 21  1  0  0  0  0
 20 23  2  0  0  0  0
 21 24  2  0  0  0  0
 22 25  1  0  0  0  0
 23 24  1  0  0  0  0
 25 26  2  0  0  0  0
M  END
> <Acceptable>
false

> <IC50>
1.58

$$$$

Generated by Molecular Materials Informatics

 25 27  0  0  0  0  0  0  0  0999 V2000
    4.1569    0.8000    0.0000 N   0  0  0  0  0  0  0  0  0  0  0  0
    2.7713    0.0000    0.0000 C   0  0  0  0  0  0  0  0  0  0  0  0
    1.3856    0.8000    0.0000 C   0  0  0  0  0  0  0  0  0  0  0  0
    0.0000    0.0000    0.0000 C   0  0  0  0  0  0  0  0  0  0  0  0
    0.0000   -1.6000    0.0000 C   0  0  0  0  0  0  0  0  0  0  0  0
   -1.3856   -2.4000    0.0000 C   0  0  0  0  0  0  0  0  0  0  0  0
   -1.3856   -4.0000    0.0000 C   0  0  0  0  0  0  0  0  0  0  0  0
    0.0000   -4.8000    0.0000 C   0  0  0  0  0  0  0  0  0  0  0  0
    1.3856   -4.0000    0.0000 C   0  0  0  0  0  0  0  0  0  0  0  0
    1.3856   -2.4000    0.0000 C   0  0  0  0  0  0  0  0  0  0  0  0
   -1.3856    0.8000    0.0000 C   0  0  0  0  0  0  0  0  0  0  0  0
   -1.3856    2.4000    0.0000 C   0  0  0  0  0  0  0  0  0  0  0  0
   -2.7713    3.2000    0.0000 C   0  0  0  0  0  0  0  0  0  0  0  0
   -4.1569    2.4000    0.0000 C   0  0  0  0  0  0  0  0  0  0  0  0
   -4.1569    0.8000    0.0000 C   0  0  0  0  0  0  0  0  0  0  0  0
   -2.7713    0.0000    0.0000 C   0  0  0  0  0  0  0  0  0  0  0  0
    5.5426    0.0000    0.0000 C   0  0  0  0  0  0  0  0  0  0  0  0
    5.5426   -1.6000    0.0000 C   0  0  0  0  0  0  0  0  0  0  0  0
    6.9282    0.8000    0.0000 C   0  0  0  0  0  0  0  0  0  0  0  0
    8.3138    0.0000    0.0000 C   0  0  0  0  0  0  0  0  0  0  0  0
    8.3138   -1.6000    0.0000 C   0  0  0  0  0  0  0  0  0  0  0  0
    9.6995   -2.4000    0.0000 C   0  0  0  0  0  0  0  0  0  0  0  0
   11.0851   -1.6000    0.0000 C   0  0  0  0  0  0  0  0  0  0  0  0
   11.0851    0.0000    0.0000 C   0  0  0  0  0  0  0  0  0  0  0  0
    9.6995    0.8000    0.0000 C   0  0  0  0  0  0  0  0  0  0  0  0
  1  2  1  0  0  0  0
  1 17  1  0  0  0  0
  2  3  1  0  0  0  0
  3  4  1  0  0  0  0
  4  5  1  0  0  0  0
  4 11  1  0  0  0  0
  5  6  1  0  0  0  0
  5 10  2  0  0  0  0
  6  7  2  0  0  0  0
  7  8  1  0  0  0  0
  8  9  2  0  0  0  0
  9 10  1  0  0  0  0
 11 12  1  0  0  0  0
 11 16  2  0  0  0  0
 12 13  2  0  0  0  0
 13 14  1  0  0  0  0
 14 15  2  0  0  0  0
 15 16  1  0  0  0  0
 17 18  1  1  0  0  0
 17 19  1  0  0  0  0
 19 20  1  0  0  0  0
 20 21  1  0  0  0  0
 20 25  2  0  0  0  0
 21 22  2  0  0  0  0
 22 23  1  0  0  0  0
 23 24  2  0  0  0  0
 24 25  1  0  0  0  0
M  END
> <Acceptable>
false

> <IC50>
0.59

$$$$

Generated by Molecular Materials Informatics

 19 20  0  0  0  0  0  0  0  0999 V2000
    0.0000   -4.8000    0.0000 O   0  0  0  0  0  0  0  0  0  0  0  0
   -2.7713    0.0000    0.0000 N   0  0  0  0  0  0  0  0  0  0  0  0
   -9.6995   -0.8000    0.0000 N   0  0  0  0  0  0  0  0  0  0  0  0
    0.0000    1.6000    0.0000 N   0  0  0  0  0  0  0  0  0  0  0  0
   -4.1569   -0.8000    0.0000 C   0  0  0  0  0  0  0  0  0  0  0  0
   -5.5426    0.0000    0.0000 C   0  0  0  0  0  0  0  0  0  0  0  0
   -6.9282   -0.8000    0.0000 C   0  0  0  0  0  0  0  0  0  0  0  0
   -4.1569   -2.4000    0.0000 C   0  0  0  0  0  0  0  0  0  0  0  0
   -1.3856   -0.8000    0.0000 C   0  0  0  0  0  0  0  0  0  0  0  0
   -8.3138    0.0000    0.0000 C   0  0  0  0  0  0  0  0  0  0  0  0
    0.0000    0.0000    0.0000 C   0  0  0  0  0  0  0  0  0  0  0  0
   -1.3856   -2.4000    0.0000 C   0  0  0  0  0  0  0  0  0  0  0  0
    1.3856   -0.8000    0.0000 C   0  0  0  0  0  0  0  0  0  0  0  0
    0.0000   -3.2000    0.0000 C   0  0  0  0  0  0  0  0  0  0  0  0
    1.3856   -2.4000    0.0000 C   0  0  0  0  0  0  0  0  0  0  0  0
    2.7713    0.0000    0.0000 C   0  0  0  0  0  0  0  0  0  0  0  0
    2.7713    1.6000    0.0000 C   0  0  0  0  0  0  0  0  0  0  0  0
    1.3856    2.4000    0.0000 C   0  0  0  0  0  0  0  0  0  0  0  0
    1.3856   -5.6000    0.0000 C   0  0  0  0  0  0  0  0  0  0  0  0
  1 14  1  0  0  0  0
  1 19  1  0  0  0  0
  2  5  1  0  0  0  0
  2  9  1  0  0  0  0
  3 10  1  0  0  0  0
  4 11  1  0  0  0  0
  4 18  2  0  0  0  0
  5  6  1  0  0  0  0
  5  8  1  6  0  0  0
  6  7  1  0  0  0  0
  7 10  1  0  0  0  0
  9 11  2  0  0  0  0
  9 12  1  0  0  0  0
 11 13  1  0  0  0  0
 12 14  2  0  0  0  0
 13 15  2  0  0  0  0
 13 16  1  0  0  0  0
 14 15  1  0  0  0  0
 16 17  2  0  0  0  0
 17 18  1  0  0  0  0
M  END
> <Acceptable>
false

> <IC50>
21.5

$$$$

Generated by Molecular Materials Informatics

 16 17  0  0  0  0  0  0  0  0999 V2000
    1.3856    2.4000    0.0000 O   0  0  0  0  0  0  0  0  0  0  0  0
    0.0000    1.6000    0.0000 C   0  0  0  0  0  0  0  0  0  0  0  0
   -1.3856    2.4000    0.0000 N   0  0  0  0  0  0  0  0  0  0  0  0
   -2.7713    1.6000    0.0000 C   0  0  0  0  0  0  0  0  0  0  0  0
   -2.7713    0.0000    0.0000 N   0  0  0  0  0  0  0  0  0  0  0  0
   -1.3856   -0.8000    0.0000 C   0  0  0  0  0  0  0  0  0  0  0  0
   -1.3856   -2.4000    0.0000 O   0  0  0  0  0  0  0  0  0  0  0  0
    0.0000    0.0000    0.0000 C   0  0  0  0  0  0  0  0  0  0  0  0
    0.5472   -1.5035    0.0000 C   0  0  0  0  0  0  0  0  0  0  0  0
   -0.4812   -2.7292    0.0000 C   0  0  0  0  0  0  0  0  0  0  0  0
    1.5757    0.2778    0.0000 C   0  0  0  0  0  0  0  0  0  0  0  0
    2.6042   -0.9478    0.0000 C   0  0  0  0  0  0  0  0  0  0  0  0
    4.1798   -0.6700    0.0000 C   0  0  0  0  0  0  0  0  0  0  0  0
    4.7271    0.8335    0.0000 C   0  0  0  0  0  0  0  0  0  0  0  0
    3.6986    2.0592    0.0000 C   0  0  0  0  0  0  0  0  0  0  0  0
    2.1229    1.7813    0.0000 C   0  0  0  0  0  0  0  0  0  0  0  0
  1  2  2  0  0  0  0
  2  3  1  0  0  0  0
  2  8  1  0  0  0  0
  3  4  1  0  0  0  0
  4  5  1  0  0  0  0
  5  6  1  0  0  0  0
  6  7  2  0  0  0  0
  6  8  1  0  0  0  0
  8  9  1  0  0  0  0
  8 11  1  0  0  0  0
  9 10  1  0  0  0  0
 11 12  1  0  0  0  0
 11 16  2  0  0  0  0
 12 13  2  0  0  0  0
 13 14  1  0  0  0  0
 14 15  2  0  0  0  0
 15 16  1  0  0  0  0
M  END
> <Acceptable>
true

> <IC50>
N/A

$$$$

Generated by Molecular Materials Informatics

 17 17  0  0  0  0  0  0  0  0999 V2000
    0.0000    0.0000    0.0000 C   0  0  0  0  0  0  0  0  0  0  0  0
    1.6000    0.0000    0.0000 C   0  0  0  0  0  0  0  0  0  0  0  0
   -0.8000   -1.3856    0.0000 C   0  0  0  0  0  0  0  0  0  0  0  0
   -0.8000    1.3856    0.0000 C   0  0  0  0  0  0  0  0  0  0  0  0
    2.4000   -1.3856    0.0000 N   0  0  0  0  0  0  0  0  0  0  0  0
    2.4000    1.3856    0.0000 O   0  0  0  0  0  0  0  0  0  0  0  0
   -2.4000   -1.3856    0.0000 C   0  0  0  0  0  0  0  0  0  0  0  0
   -2.4000    1.3856    0.0000 C   0  0  0  0  0  0  0  0  0  0  0  0
    4.0000   -1.3856    0.0000 C   0  0  0  0  0  0  0  0  0  0  0  0
   -3.2000    0.0000    0.0000 C   0  0  0  0  0  0  0  0  0  0  0  0
    4.8000   -2.7713    0.0000 C   0  0  0  0  0  0  0  0  0  0  0  0
   -4.8000    0.0000    0.0000 N   0  0  0  0  0  0  0  0  0  0  0  0
    6.4000   -2.7713    0.0000 N   0  0  0  0  0  0  0  0  0  0  0  0
    7.2000   -1.3856    0.0000 C   0  0  0  0  0  0  0  0  0  0  0  0
    7.2000   -4.1569    0.0000 C   0  0  0  0  0  0  0  0  0  0  0  0
    8.8000   -1.3856    0.0000 C   0  0  0  0  0  0  0  0  0  0  0  0
    8.8000   -4.1569    0.0000 C   0  0  0  0  0  0  0  0  0  0  0  0
  1  2  1  0  0  0  0
  1  3  2  0  0  0  0
  1  4  1  0  0  0  0
  2  5  1  0  0  0  0
  2  6  2  0  0  0  0
  3  7  1  0  0  0  0
  4  8  2  0  0  0  0
  5  9  1  0  0  0  0
  7 10  2  0  0  0  0
  8 10  1  0  0  0  0
  9 11  1  0  0  0  0
 10 12  1  0  0  0  0
 11 13  1  0  0  0  0
 13 14  1  0  0  0  0
 13 15  1  0  0  0  0
 14 16  1  0  0  0  0
 15 17  1  0  0  0  0
M  END
> <Acceptable>
true

> <IC50>
138.7

$$$$

Generated by Molecular Materials Informatics

 22 24  0  0  0  0  0  0  0  0999 V2000
   -4.7821   -2.5328    0.0000 Cl  0  0  0  0  0  0  0  0  0  0  0  0
    0.0000    0.0000    0.0000 N   0  0  0  0  0  0  0  0  0  0  0  0
    4.0630   -3.7699    0.0000 N   0  0  0  0  0  0  0  0  0  0  0  0
    0.4716   -1.5289    0.0000 C   0  0  0  0  0  0  0  0  0  0  0  0
   -1.5821    0.2385    0.0000 C   0  0  0  0  0  0  0  0  0  0  0  0
    1.1729    1.0883    0.0000 C   0  0  0  0  0  0  0  0  0  0  0  0
   -1.7976    3.1135    0.0000 C   0  0  0  0  0  0  0  0  0  0  0  0
   -0.2687    3.5851    0.0000 C   0  0  0  0  0  0  0  0  0  0  0  0
   -2.3821    1.6241    0.0000 C   0  0  0  0  0  0  0  0  0  0  0  0
    1.0533    2.6838    0.0000 C   0  0  0  0  0  0  0  0  0  0  0  0
    2.0315   -1.8849    0.0000 C   0  0  0  0  0  0  0  0  0  0  0  0
    2.5031   -3.4139    0.0000 C   0  0  0  0  0  0  0  0  0  0  0  0
   -2.3821   -1.1472    0.0000 C   0  0  0  0  0  0  0  0  0  0  0  0
    2.6144    0.3941    0.0000 C   0  0  0  0  0  0  0  0  0  0  0  0
   -3.9821    1.6241    0.0000 C   0  0  0  0  0  0  0  0  0  0  0  0
    2.3753    3.5851    0.0000 C   0  0  0  0  0  0  0  0  0  0  0  0
   -3.9821   -1.1472    0.0000 C   0  0  0  0  0  0  0  0  0  0  0  0
    3.9364    1.2954    0.0000 C   0  0  0  0  0  0  0  0  0  0  0  0
   -4.7821    0.2385    0.0000 C   0  0  0  0  0  0  0  0  0  0  0  0
    3.8168    2.8909    0.0000 C   0  0  0  0  0  0  0  0  0  0  0  0
    5.1513   -2.5970    0.0000 C   0  0  0  0  0  0  0  0  0  0  0  0
    4.5346   -5.2988    0.0000 C   0  0  0  0  0  0  0  0  0  0  0  0
  1 17  1  0  0  0  0
  2  4  1  0  0  0  0
  2  5  1  0  0  0  0
  2  6  1  0  0  0  0
  3 12  1  0  0  0  0
  3 21  1  0  0  0  0
  3 22  1  0  0  0  0
  4 11  1  0  0  0  0
  5  9  2  0  0  0  0
  5 13  1  0  0  0  0
  6 10  2  0  0  0  0
  6 14  1  0  0  0  0
  7  8  1  0  0  0  0
  7  9  1  0  0  0  0
  8 10  1  0  0  0  0
  9 15  1  0  0  0  0
 10 16  1  0  0  0  0
 11 12  1  0  0  0  0
 13 17  2  0  0  0  0
 14 18  2  0  0  0  0
 15 19  2  0  0  0  0
 16 20  2  0  0  0  0
 17 19  1  0  0  0  0
 18 20  1  0  0  0  0
M  END
> <Acceptable>
false

> <IC50>
39.81

$$$$

Generated by Molecular Materials Informatics

 16 16  0  0  0  0  0  0  0  0999 V2000
   -1.3856    2.4000    0.0000 O   0  0  0  0  0  0  0  0  0  0  0  0
   -1.3856    0.8000    0.0000 C   0  0  0  0  0  0  0  0  0  0  0  0
   -2.7713    0.0000    0.0000 N   0  0  0  0  0  0  0  0  0  0  0  0
   -4.1569    0.8000    0.0000 C   0  0  0  0  0  0  0  0  0  0  0  0
   -4.1569    2.4000    0.0000 C   0  0  0  0  0  0  0  0  0  0  0  0
   -5.5426    0.0000    0.0000 C   0  0  0  0  0  0  0  0  0  0  0  0
    0.0000    0.0000    0.0000 C   0  0  0  0  0  0  0  0  0  0  0  0
    0.0000   -1.6000    0.0000 C   0  0  0  0  0  0  0  0  0  0  0  0
    1.3856   -2.4000    0.0000 C   0  0  0  0  0  0  0  0  0  0  0  0
    2.7713   -1.6000    0.0000 C   0  0  0  0  0  0  0  0  0  0  0  0
    2.7713    0.0000    0.0000 C   0  0  0  0  0  0  0  0  0  0  0  0
    1.3856    0.8000    0.0000 C   0  0  0  0  0  0  0  0  0  0  0  0
    4.1569   -2.4000    0.0000 C   0  0  0  0  0  0  0  0  0  0  0  0
    5.5426   -1.6000    0.0000 N   0  0  0  0  0  0  0  0  0  0  0  0
    6.9282   -2.4000    0.0000 N   0  0  0  0  0  0  0  0  0  0  0  0
    8.3138   -1.6000    0.0000 C   0  0  0  0  0  0  0  0  0  0  0  0
  1  2  2  0  0  0  0
  2  3  1  0  0  0  0
  2  7  1  0  0  0  0
  3  4  1  0  0  0  0
  4  5  1  0  0  0  0
  4  6  1  0  0  0  0
  7  8  1  0  0  0  0
  7 12  2  0  0  0  0
  8  9  2  0  0  0  0
  9 10  1  0  0  0  0
 10 11  2  0  0  0  0
 10 13  1  0  0  0  0
 11 12  1  0  0  0  0
 13 14  1  0  0  0  0
 14 15  1  0  0  0  0
 15 16  1  0  0  0  0
M  END
> <Acceptable>
true

> <IC50>
N/A

$$$$

Generated by Molecular Materials Informatics

 25 28  0  0  0  0  0  0  0  0999 V2000
   -4.8000    2.7713    0.0000 Cl  0  0  0  0  0  0  0  0  0  0  0  0
   -4.0000    1.3856    0.0000 C   0  0  0  0  0  0  0  0  0  0  0  0
   -4.8000    0.0000    0.0000 C   0  0  0  0  0  0  0  0  0  0  0  0
   -4.0000   -1.3856    0.0000 C   0  0  0  0  0  0  0  0  0  0  0  0
   -2.4000   -1.3856    0.0000 C   0  0  0  0  0  0  0  0  0  0  0  0
   -1.6000   -2.7713    0.0000 S   0  0  0  0  0  0  0  0  0  0  0  0
    0.0000   -2.7713    0.0000 C   0  0  0  0  0  0  0  0  0  0  0  0
    0.8000   -4.1569    0.0000 C   0  0  0  0  0  0  0  0  0  0  0  0
    2.4000   -4.1569    0.0000 C   0  0  0  0  0  0  0  0  0  0  0  0
    3.2000   -2.7713    0.0000 C   0  0  0  0  0  0  0  0  0  0  0  0
    2.4000   -1.3856    0.0000 C   0  0  0  0  0  0  0  0  0  0  0  0
    0.8000   -1.3856    0.0000 C   0  0  0  0  0  0  0  0  0  0  0  0
    0.0000    0.0000    0.0000 N   0  0  0  0  0  0  0  0  0  0  0  0
    0.8000    1.3856    0.0000 C   0  0  0  0  0  0  0  0  0  0  0  0
    2.4000    1.3856    0.0000 C   0  0  0  0  0  0  0  0  0  0  0  0
    3.2000    2.7713    0.0000 C   0  0  0  0  0  0  0  0  0  0  0  0
    4.8000    2.7713    0.0000 N   0  0  0  0  0  0  0  0  0  0  0  0
    5.6000    1.3856    0.0000 C   0  0  0  0  0  0  0  0  0  0  0  0
    7.2000    1.3856    0.0000 C   0  0  0  0  0  0  0  0  0  0  0  0
    8.0000    2.7713    0.0000 N   0  0  0  0  0  0  0  0  0  0  0  0
    9.6000    2.7713    0.0000 C   0  0  0  0  0  0  0  0  0  0  0  0
    7.2000    4.1569    0.0000 C   0  0  0  0  0  0  0  0  0  0  0  0
    5.6000    4.1569    0.0000 C   0  0  0  0  0  0  0  0  0  0  0  0
   -1.6000    0.0000    0.0000 C   0  0  0  0  0  0  0  0  0  0  0  0
   -2.4000    1.3856    0.0000 C   0  0  0  0  0  0  0  0  0  0  0  0
  1  2  1  0  0  0  0
  2  3  1  0  0  0  0
  2 25  2  0  0  0  0
  3  4  2  0  0  0  0
  4  5  1  0  0  0  0
  5  6  1  0  0  0  0
  5 24  2  0  0  0  0
  6  7  1  0  0  0  0
  7  8  1  0  0  0  0
  7 12  2  0  0  0  0
  8  9  2  0  0  0  0
  9 10  1  0  0  0  0
 10 11  2  0  0  0  0
 11 12  1  0  0  0  0
 12 13  1  0  0  0  0
 13 14  1  0  0  0  0
 13 24  1  0  0  0  0
 14 15  1  0  0  0  0
 15 16  1  0  0  0  0
 17 16  1  1  0  0  0
 17 18  1  0  0  0  0
 17 23  1  0  0  0  0
 18 19  1  0  0  0  0
 19 20  1  0  0  0  0
 20 21  1  1  0  0  0
 20 22  1  0  0  0  0
 22 23  1  0  0  0  0
 24 25  1  0  0  0  0
M  END
> <Acceptable>
false

> <IC50>
22.6

$$$$

Generated by Molecular Materials Informatics

 17 17  0  0  0  0  0  0  0  0999 V2000
   -4.1569    2.4000    0.0000 Cl  0  0  0  0  0  0  0  0  0  0  0  0
   -2.7713    1.6000    0.0000 C   0  0  0  0  0  0  0  0  0  0  0  0
   -1.3856    2.4000    0.0000 C   0  0  0  0  0  0  0  0  0  0  0  0
    0.0000    1.6000    0.0000 C   0  0  0  0  0  0  0  0  0  0  0  0
    0.0000    0.0000    0.0000 C   0  0  0  0  0  0  0  0  0  0  0  0
    1.3856   -0.8000    0.0000 N   0  0  0  0  0  0  0  0  0  0  0  0
    2.7713    0.0000    0.0000 C   0  0  0  0  0  0  0  0  0  0  0  0
    2.7713    1.6000    0.0000 N   0  0  0  0  0  0  0  0  0  0  0  0
    4.1569   -0.8000    0.0000 N   0  0  0  0  0  0  0  0  0  0  0  0
    5.5426    0.0000    0.0000 C   0  0  0  0  0  0  0  0  0  0  0  0
    5.5426    1.6000    0.0000 N   0  0  0  0  0  0  0  0  0  0  0  0
    6.9282   -0.8000    0.0000 N   0  0  0  0  0  0  0  0  0  0  0  0
    8.3138    0.0000    0.0000 C   0  0  0  0  0  0  0  0  0  0  0  0
    8.3138    1.6000    0.0000 C   0  0  0  0  0  0  0  0  0  0  0  0
    9.6995   -0.8000    0.0000 C   0  0  0  0  0  0  0  0  0  0  0  0
   -1.3856   -0.8000    0.0000 C   0  0  0  0  0  0  0  0  0  0  0  0
   -2.7713    0.0000    0.0000 C   0  0  0  0  0  0  0  0  0  0  0  0
  1  2  1  0  0  0  0
  2  3  1  0  0  0  0
  2 17  2  0  0  0  0
  3  4  2  0  0  0  0
  4  5  1  0  0  0  0
  5  6  1  0  0  0  0
  5 16  2  0  0  0  0
  6  7  1  0  0  0  0
  7  8  2  0  0  0  0
  7  9  1  0  0  0  0
  9 10  1  0  0  0  0
 10 11  2  0  0  0  0
 10 12  1  0  0  0  0
 12 13  1  0  0  0  0
 13 14  1  0  0  0  0
 13 15  1  0  0  0  0
 16 17  1  0  0  0  0
M  END
> <Acceptable>
true

> <IC50>
N/A

$$$$

Generated by Molecular Materials Informatics

 20 22  0  0  0  0  0  0  0  0999 V2000
   -2.7713    1.6000    0.0000 S   0  0  0  0  0  0  0  0  0  0  0  0
   -2.7713    0.0000    0.0000 C   0  0  0  0  0  0  0  0  0  0  0  0
   -4.1569   -0.8000    0.0000 C   0  0  0  0  0  0  0  0  0  0  0  0
   -4.1569   -2.4000    0.0000 C   0  0  0  0  0  0  0  0  0  0  0  0
   -2.7713   -3.2000    0.0000 C   0  0  0  0  0  0  0  0  0  0  0  0
   -1.3856   -2.4000    0.0000 C   0  0  0  0  0  0  0  0  0  0  0  0
   -1.3856   -0.8000    0.0000 C   0  0  0  0  0  0  0  0  0  0  0  0
    0.0000    0.0000    0.0000 N   0  0  0  0  0  0  0  0  0  0  0  0
    1.3856   -0.8000    0.0000 C   0  0  0  0  0  0  0  0  0  0  0  0
    2.7713    0.0000    0.0000 C   0  0  0  0  0  0  0  0  0  0  0  0
    4.1569   -0.8000    0.0000 N   0  0  0  0  0  0  0  0  0  0  0  0
    4.1569   -2.4000    0.0000 C   0  0  0  0  0  0  0  0  0  0  0  0
    5.5426    0.0000    0.0000 C   0  0  0  0  0  0  0  0  0  0  0  0
    2.7713    1.6000    0.0000 C   0  0  0  0  0  0  0  0  0  0  0  0
    0.0000    1.6000    0.0000 C   0  0  0  0  0  0  0  0  0  0  0  0
    1.3856    2.4000    0.0000 C   0  0  0  0  0  0  0  0  0  0  0  0
    1.3856    4.0000    0.0000 C   0  0  0  0  0  0  0  0  0  0  0  0
    0.0000    4.8000    0.0000 C   0  0  0  0  0  0  0  0  0  0  0  0
   -1.3856    4.0000    0.0000 C   0  0  0  0  0  0  0  0  0  0  0  0
   -1.3856    2.4000    0.0000 C   0  0  0  0  0  0  0  0  0  0  0  0
  1  2  1  0  0  0  0
  1 20  1  0  0  0  0
  2  3  1  0  0  0  0
  2  7  2  0  0  0  0
  3  4  2  0  0  0  0
  4  5  1  0  0  0  0
  5  6  2  0  0  0  0
  6  7  1  0  0  0  0
  7  8  1  0  0  0  0
  8  9  1  0  0  0  0
  8 15  1  0  0  0  0
  9 10  1  0  0  0  0
 10 11  1  0  0  0  0
 10 14  1  1  0  0  0
 11 12  1  0  0  0  0
 11 13  1  0  0  0  0
 15 16  1  0  0  0  0
 15 20  2  0  0  0  0
 16 17  2  0  0  0  0
 17 18  1  0  0  0  0
 18 19  2  0  0  0  0
 19 20  1  0  0  0  0
M  END
> <Acceptable>
false

> <IC50>
N/A

$$$$

Generated by Molecular Materials Informatics

 25 26  0  0  0  0  0  0  0  0999 V2000
    0.0000    2.7713    0.0000 O   0  0  0  0  0  0  0  0  0  0  0  0
   -0.8000    1.3856    0.0000 C   0  0  0  0  0  0  0  0  0  0  0  0
   -2.4000    1.3856    0.0000 C   0  0  0  0  0  0  0  0  0  0  0  0
   -3.2000    2.7713    0.0000 C   0  0  0  0  0  0  0  0  0  0  0  0
   -4.8000    2.7713    0.0000 C   0  0  0  0  0  0  0  0  0  0  0  0
   -5.6000    4.1569    0.0000 C   0  0  0  0  0  0  0  0  0  0  0  0
   -7.2000    4.1569    0.0000 C   0  0  0  0  0  0  0  0  0  0  0  0
   -8.0000    2.7713    0.0000 C   0  0  0  0  0  0  0  0  0  0  0  0
   -7.2000    1.3856    0.0000 C   0  0  0  0  0  0  0  0  0  0  0  0
   -5.6000    1.3856    0.0000 C   0  0  0  0  0  0  0  0  0  0  0  0
    0.0000    0.0000    0.0000 C   0  0  0  0  0  0  0  0  0  0  0  0
   -0.8000   -1.3856    0.0000 C   0  0  0  0  0  0  0  0  0  0  0  0
    0.0000   -2.7713    0.0000 C   0  0  0  0  0  0  0  0  0  0  0  0
    1.6000   -2.7713    0.0000 C   0  0  0  0  0  0  0  0  0  0  0  0
    2.4000   -1.3856    0.0000 C   0  0  0  0  0  0  0  0  0  0  0  0
    1.6000    0.0000    0.0000 C   0  0  0  0  0  0  0  0  0  0  0  0
    2.4000    1.3856    0.0000 O   0  0  0  0  0  0  0  0  0  0  0  0
    4.0000    1.3856    0.0000 C   0  0  0  0  0  0  0  0  0  0  0  0
    4.8000    2.7713    0.0000 C   0  0  0  0  0  0  0  0  0  0  0  0
    4.0000    4.1569    0.0000 O   0  0  0  0  0  0  0  0  0  0  0  0
    6.4000    2.7713    0.0000 C   0  0  0  0  0  0  0  0  0  0  0  0
    7.2000    4.1569    0.0000 N   0  0  0  0  0  0  0  0  0  0  0  0
    8.8000    4.1569    0.0000 C   0  0  0  0  0  0  0  0  0  0  0  0
    9.6000    5.5426    0.0000 C   0  0  0  0  0  0  0  0  0  0  0  0
   11.2000    5.5426    0.0000 C   0  0  0  0  0  0  0  0  0  0  0  0
  1  2  2  0  0  0  0
  2  3  1  0  0  0  0
  2 11  1  0  0  0  0
  3  4  1  0  0  0  0
  4  5  1  0  0  0  0
  5  6  1  0  0  0  0
  5 10  2  0  0  0  0
  6  7  2  0  0  0  0
  7  8  1  0  0  0  0
  8  9  2  0  0  0  0
  9 10  1  0  0  0  0
 11 12  1  0  0  0  0
 11 16  2  0  0  0  0
 12 13  2  0  0  0  0
 13 14  1  0  0  0  0
 14 15  2  0  0  0  0
 15 16  1  0  0  0  0
 16 17  1  0  0  0  0
 17 18  1  0  0  0  0
 18 19  1  0  0  0  0
 19 20  1  6  0  0  0
 19 21  1  0  0  0  0
 21 22  1  0  0  0  0
 22 23  1  0  0  0  0
 23 24  1  0  0  0  0
 24 25  1  0  0  0  0
M  END
> <Acceptable>
false

> <IC50>
0.44

$$$$

Generated by Molecular Materials Informatics

 21 21  0  0  0  0  0  0  0  0999 V2000
    4.1569    2.4000    0.0000 O   0  0  0  0  0  0  0  0  0  0  0  0
    4.1569    0.8000    0.0000 C   0  0  0  0  0  0  0  0  0  0  0  0
    2.7713    0.0000    0.0000 N   0  0  0  0  0  0  0  0  0  0  0  0
    1.3856    0.8000    0.0000 C   0  0  0  0  0  0  0  0  0  0  0  0
    1.3856    2.4000    0.0000 O   0  0  0  0  0  0  0  0  0  0  0  0
    0.0000    0.0000    0.0000 C   0  0  0  0  0  0  0  0  0  0  0  0
    0.0000   -1.6000    0.0000 C   0  0  0  0  0  0  0  0  0  0  0  0
   -1.3856   -2.4000    0.0000 C   0  0  0  0  0  0  0  0  0  0  0  0
   -2.7713   -1.6000    0.0000 C   0  0  0  0  0  0  0  0  0  0  0  0
   -4.1569   -2.4000    0.0000 N   0  0  0  0  0  0  0  0  0  0  0  0
   -2.7713    0.0000    0.0000 C   0  0  0  0  0  0  0  0  0  0  0  0
   -1.3856    0.8000    0.0000 C   0  0  0  0  0  0  0  0  0  0  0  0
   -1.3856    2.4000    0.0000 C   0  0  0  0  0  0  0  0  0  0  0  0
   -2.7713    3.2000    0.0000 C   0  0  0  0  0  0  0  0  0  0  0  0
   -2.7713    4.8000    0.0000 N   0  0  0  0  0  0  0  0  0  0  0  0
   -1.3856    5.6000    0.0000 C   0  0  0  0  0  0  0  0  0  0  0  0
   -1.3856    7.2000    0.0000 C   0  0  0  0  0  0  0  0  0  0  0  0
   -4.1569    5.6000    0.0000 C   0  0  0  0  0  0  0  0  0  0  0  0
   -4.1569    7.2000    0.0000 C   0  0  0  0  0  0  0  0  0  0  0  0
    5.5426    0.0000    0.0000 C   0  0  0  0  0  0  0  0  0  0  0  0
    6.9282    0.8000    0.0000 C   0  0  0  0  0  0  0  0  0  0  0  0
  1  2  2  0  0  0  0
  2  3  1  0  0  0  0
  2 20  1  0  0  0  0
  3  4  1  0  0  0  0
  4  5  2  0  0  0  0
  4  6  1  0  0  0  0
  6  7  1  0  0  0  0
  6 12  2  0  0  0  0
  7  8  2  0  0  0  0
  8  9  1  0  0  0  0
  9 10  1  0  0  0  0
  9 11  2  0  0  0  0
 11 12  1  0  0  0  0
 12 13  1  0  0  0  0
 13 14  1  0  0  0  0
 14 15  1  0  0  0  0
 15 16  1  0  0  0  0
 15 18  1  0  0  0  0
 16 17  1  0  0  0  0
 18 19  1  0  0  0  0
 20 21  1  0  0  0  0
M  END
> <Acceptable>
false

> <IC50>
N/A

$$$$

Generated by Molecular Materials Informatics

 27 29  0  0  0  0  0  0  0  0999 V2000
   -2.7713    0.0000    0.0000 O   0  0  0  0  0  0  0  0  0  0  0  0
    1.3856   -0.8000    0.0000 O   0  0  0  0  0  0  0  0  0  0  0  0
   -1.3856    2.4000    0.0000 O   0  0  0  0  0  0  0  0  0  0  0  0
   -6.9282    2.4000    0.0000 N   0  0  0  0  0  0  0  0  0  0  0  0
   -4.1569    0.8000    0.0000 C   0  0  0  0  0  0  0  0  0  0  0  0
   -5.5426    0.0000    0.0000 C   0  0  0  0  0  0  0  0  0  0  0  0
   -4.1569    2.4000    0.0000 C   0  0  0  0  0  0  0  0  0  0  0  0
   -6.9282    0.8000    0.0000 C   0  0  0  0  0  0  0  0  0  0  0  0
   -5.5426    3.2000    0.0000 C   0  0  0  0  0  0  0  0  0  0  0  0
    0.0000    0.0000    0.0000 C   0  0  0  0  0  0  0  0  0  0  0  0
   -8.3138    3.2000    0.0000 C   0  0  0  0  0  0  0  0  0  0  0  0
   -1.3856    0.8000    0.0000 C   0  0  0  0  0  0  0  0  0  0  0  0
   -0.8000   -1.3856    0.0000 C   0  0  0  0  0  0  0  0  0  0  0  0
    0.8000    1.3856    0.0000 C   0  0  0  0  0  0  0  0  0  0  0  0
    2.7713    0.0000    0.0000 C   0  0  0  0  0  0  0  0  0  0  0  0
   -2.4000   -1.3856    0.0000 C   0  0  0  0  0  0  0  0  0  0  0  0
    2.4000    1.3856    0.0000 C   0  0  0  0  0  0  0  0  0  0  0  0
    0.0000   -2.7713    0.0000 C   0  0  0  0  0  0  0  0  0  0  0  0
    0.0000    2.7713    0.0000 C   0  0  0  0  0  0  0  0  0  0  0  0
    4.1569   -0.8000    0.0000 C   0  0  0  0  0  0  0  0  0  0  0  0
   -3.2000   -2.7713    0.0000 C   0  0  0  0  0  0  0  0  0  0  0  0
    3.2000    2.7713    0.0000 C   0  0  0  0  0  0  0  0  0  0  0  0
   -0.8000   -4.1569    0.0000 C   0  0  0  0  0  0  0  0  0  0  0  0
    0.8000    4.1569    0.0000 C   0  0  0  0  0  0  0  0  0  0  0  0
   -2.4000   -4.1569    0.0000 C   0  0  0  0  0  0  0  0  0  0  0  0
    2.4000    4.1569    0.0000 C   0  0  0  0  0  0  0  0  0  0  0  0
    5.5426    0.0000    0.0000 C   0  0  0  0  0  0  0  0  0  0  0  0
  5  1  1  1  0  0  0
  1 12  1  0  0  0  0
  2 10  1  0  0  0  0
  2 15  1  0  0  0  0
  3 12  2  0  0  0  0
  4  8  1  0  0  0  0
  4  9  1  0  0  0  0
  4 11  1  6  0  0  0
  5  6  1  0  0  0  0
  5  7  1  0  0  0  0
  6  8  1  0  0  0  0
  7  9  1  0  0  0  0
 10 12  1  0  0  0  0
 10 13  1  0  0  0  0
 10 14  1  0  0  0  0
 13 16  2  0  0  0  0
 13 18  1  0  0  0  0
 14 17  2  0  0  0  0
 14 19  1  0  0  0  0
 15 20  1  0  0  0  0
 16 21  1  0  0  0  0
 17 22  1  0  0  0  0
 18 23  2  0  0  0  0
 19 24  2  0  0  0  0
 20 27  1  0  0  0  0
 21 25  2  0  0  0  0
 22 26  2  0  0  0  0
 23 25  1  0  0  0  0
 24 26  1  0  0  0  0
M  END
> <Acceptable>
false

> <IC50>
10

$$$$

Generated by Molecular Materials Informatics

 25 26  0  0  0  0  0  0  0  0999 V2000
    1.5035   -3.3185    0.0000 O   0  0  0  0  0  0  0  0  0  0  0  0
    2.3035   -1.9329    0.0000 C   0  0  0  0  0  0  0  0  0  0  0  0
    1.5035   -0.5472    0.0000 O   0  0  0  0  0  0  0  0  0  0  0  0
    0.0000    0.0000    0.0000 C   0  0  0  0  0  0  0  0  0  0  0  0
   -1.5035    0.5472    0.0000 C   0  0  0  0  0  0  0  0  0  0  0  0
   -2.3035    1.9329    0.0000 C   0  0  0  0  0  0  0  0  0  0  0  0
   -3.9035    1.9329    0.0000 C   0  0  0  0  0  0  0  0  0  0  0  0
   -4.7035    3.3185    0.0000 C   0  0  0  0  0  0  0  0  0  0  0  0
   -3.9035    4.7042    0.0000 C   0  0  0  0  0  0  0  0  0  0  0  0
   -2.3035    4.7042    0.0000 C   0  0  0  0  0  0  0  0  0  0  0  0
   -1.5035    3.3185    0.0000 C   0  0  0  0  0  0  0  0  0  0  0  0
   -0.8000   -1.3856    0.0000 C   0  0  0  0  0  0  0  0  0  0  0  0
    0.0000   -2.7713    0.0000 C   0  0  0  0  0  0  0  0  0  0  0  0
   -0.8000   -4.1569    0.0000 C   0  0  0  0  0  0  0  0  0  0  0  0
   -2.4000   -4.1569    0.0000 C   0  0  0  0  0  0  0  0  0  0  0  0
   -3.2000   -2.7713    0.0000 C   0  0  0  0  0  0  0  0  0  0  0  0
   -2.4000   -1.3856    0.0000 C   0  0  0  0  0  0  0  0  0  0  0  0
    0.5472    1.5035    0.0000 C   0  0  0  0  0  0  0  0  0  0  0  0
   -0.4812    2.7292    0.0000 C   0  0  0  0  0  0  0  0  0  0  0  0
    2.1229    1.7813    0.0000 C   0  0  0  0  0  0  0  0  0  0  0  0
    2.6702    3.2849    0.0000 N   0  0  0  0  0  0  0  0  0  0  0  0
    1.6417    4.5105    0.0000 C   0  0  0  0  0  0  0  0  0  0  0  0
    4.2458    3.5627    0.0000 C   0  0  0  0  0  0  0  0  0  0  0  0
    3.9035   -1.9329    0.0000 C   0  0  0  0  0  0  0  0  0  0  0  0
    4.7035   -0.5472    0.0000 C   0  0  0  0  0  0  0  0  0  0  0  0
  1  2  2  0  0  0  0
  2  3  1  0  0  0  0
  2 24  1  0  0  0  0
  4  3  1  1  0  0  0
  4  5  1  0  0  0  0
  4 12  1  0  0  0  0
  4 18  1  0  0  0  0
  5  6  1  0  0  0  0
  6  7  1  0  0  0  0
  6 11  2  0  0  0  0
  7  8  2  0  0  0  0
  8  9  1  0  0  0  0
  9 10  2  0  0  0  0
 10 11  1  0  0  0  0
 12 13  1  0  0  0  0
 12 17  2  0  0  0  0
 13 14  2  0  0  0  0
 14 15  1  0  0  0  0
 15 16  2  0  0  0  0
 16 17  1  0  0  0  0
 18 19  1  6  0  0  0
 18 20  1  0  0  0  0
 20 21  1  0  0  0  0
 21 22  1  0  0  0  0
 21 23  1  0  0  0  0
 24 25  1  0  0  0  0
M  END
> <Acceptable>
true

> <IC50>
N/A

$$$$

Generated by Molecular Materials Informatics

 19 20  0  0  0  0  0  0  0  0999 V2000
    5.5426    1.6000    0.0000 O   0  0  0  0  0  0  0  0  0  0  0  0
    5.5426    0.0000    0.0000 C   0  0  0  0  0  0  0  0  0  0  0  0
    4.1569   -0.8000    0.0000 C   0  0  0  0  0  0  0  0  0  0  0  0
    2.7713    0.0000    0.0000 O   0  0  0  0  0  0  0  0  0  0  0  0
    1.3856   -0.8000    0.0000 C   0  0  0  0  0  0  0  0  0  0  0  0
    1.3856   -2.4000    0.0000 C   0  0  0  0  0  0  0  0  0  0  0  0
    0.0000   -3.2000    0.0000 C   0  0  0  0  0  0  0  0  0  0  0  0
   -1.3856   -2.4000    0.0000 C   0  0  0  0  0  0  0  0  0  0  0  0
   -1.3856   -0.8000    0.0000 C   0  0  0  0  0  0  0  0  0  0  0  0
   -2.7713    0.0000    0.0000 C   0  0  0  0  0  0  0  0  0  0  0  0
   -2.7713    1.6000    0.0000 C   0  0  0  0  0  0  0  0  0  0  0  0
   -1.3856    2.4000    0.0000 C   0  0  0  0  0  0  0  0  0  0  0  0
    0.0000    1.6000    0.0000 C   0  0  0  0  0  0  0  0  0  0  0  0
    0.0000    0.0000    0.0000 C   0  0  0  0  0  0  0  0  0  0  0  0
    6.9282   -0.8000    0.0000 C   0  0  0  0  0  0  0  0  0  0  0  0
    8.3138    0.0000    0.0000 N   0  0  0  0  0  0  0  0  0  0  0  0
    9.6995   -0.8000    0.0000 C   0  0  0  0  0  0  0  0  0  0  0  0
    9.6995   -2.4000    0.0000 C   0  0  0  0  0  0  0  0  0  0  0  0
   11.0851    0.0000    0.0000 C   0  0  0  0  0  0  0  0  0  0  0  0
  2  1  1  1  0  0  0
  2  3  1  0  0  0  0
  2 15  1  0  0  0  0
  3  4  1  0  0  0  0
  4  5  1  0  0  0  0
  5  6  1  0  0  0  0
  5 14  2  0  0  0  0
  6  7  2  0  0  0  0
  7  8  1  0  0  0  0
  8  9  2  0  0  0  0
  9 10  1  0  0  0  0
  9 14  1  0  0  0  0
 10 11  2  0  0  0  0
 11 12  1  0  0  0  0
 12 13  2  0  0  0  0
 13 14  1  0  0  0  0
 15 16  1  0  0  0  0
 16 17  1  0  0  0  0
 17 18  1  0  0  0  0
 17 19  1  0  0  0  0
M  END
> <Acceptable>
false

> <IC50>
10

$$$$

Generated by Molecular Materials Informatics

 26 30  0  0  0  0  0  0  0  0999 V2000
   -4.9243   -2.5888    0.0000 O   0  0  0  0  0  0  0  0  0  0  0  0
   -3.9838   -1.2944    0.0000 C   0  0  0  0  0  0  0  0  0  0  0  0
   -2.4621   -1.7889    0.0000 C   0  0  0  0  0  0  0  0  0  0  0  0
   -0.9405   -1.2944    0.0000 C   0  0  0  0  0  0  0  0  0  0  0  0
   -0.2897   -2.7561    0.0000 C   0  0  0  0  0  0  0  0  0  0  0  0
    1.3016   -2.9233    0.0000 C   0  0  0  0  0  0  0  0  0  0  0  0
    2.2420   -1.6289    0.0000 C   0  0  0  0  0  0  0  0  0  0  0  0
    3.8332   -1.4617    0.0000 O   0  0  0  0  0  0  0  0  0  0  0  0
    4.1659    0.1034    0.0000 C   0  0  0  0  0  0  0  0  0  0  0  0
    2.7803    0.9034    0.0000 O   0  0  0  0  0  0  0  0  0  0  0  0
    1.5912   -0.1672    0.0000 C   0  0  0  0  0  0  0  0  0  0  0  0
    0.0000    0.0000    0.0000 C   0  0  0  0  0  0  0  0  0  0  0  0
    0.0000    1.6000    0.0000 C   0  0  0  0  0  0  0  0  0  0  0  0
   -0.9405    2.8944    0.0000 N   0  0  0  0  0  0  0  0  0  0  0  0
    0.0000    4.1889    0.0000 C   0  0  0  0  0  0  0  0  0  0  0  0
   -2.4621    3.3889    0.0000 C   0  0  0  0  0  0  0  0  0  0  0  0
   -3.9838    2.8944    0.0000 C   0  0  0  0  0  0  0  0  0  0  0  0
   -4.9243    1.6000    0.0000 C   0  0  0  0  0  0  0  0  0  0  0  0
   -6.3099    2.4000    0.0000 C   0  0  0  0  0  0  0  0  0  0  0  0
   -7.6956    1.6000    0.0000 C   0  0  0  0  0  0  0  0  0  0  0  0
   -9.2173    2.0944    0.0000 O   0  0  0  0  0  0  0  0  0  0  0  0
  -10.1577    0.8000    0.0000 C   0  0  0  0  0  0  0  0  0  0  0  0
   -9.2173   -0.4944    0.0000 O   0  0  0  0  0  0  0  0  0  0  0  0
   -7.6956    0.0000    0.0000 C   0  0  0  0  0  0  0  0  0  0  0  0
   -6.3099   -0.8000    0.0000 C   0  0  0  0  0  0  0  0  0  0  0  0
   -4.9243    0.0000    0.0000 C   0  0  0  0  0  0  0  0  0  0  0  0
  1  2  2  0  0  0  0
  2  3  1  0  0  0  0
  2 26  1  0  0  0  0
  3  4  1  0  0  0  0
  4  5  1  0  0  0  0
  4 12  2  0  0  0  0
  5  6  2  0  0  0  0
  6  7  1  0  0  0  0
  7  8  1  0  0  0  0
  7 11  2  0  0  0  0
  8  9  1  0  0  0  0
  9 10  1  0  0  0  0
 10 11  1  0  0  0  0
 11 12  1  0  0  0  0
 12 13  1  0  0  0  0
 13 14  1  0  0  0  0
 14 15  1  1  0  0  0
 14 16  1  0  0  0  0
 16 17  1  0  0  0  0
 17 18  1  0  0  0  0
 18 19  1  0  0  0  0
 18 26  2  0  0  0  0
 19 20  2  0  0  0  0
 20 21  1  0  0  0  0
 20 24  1  0  0  0  0
 21 22  1  0  0  0  0
 22 23  1  0  0  0  0
 23 24  1  0  0  0  0
 24 25  2  0  0  0  0
 25 26  1  0  0  0  0
M  END
> <Acceptable>
true

> <IC50>
165

$$$$

Generated by Molecular Materials Informatics

 20 22  0  0  0  0  0  0  0  0999 V2000
   -5.2963    1.6337    0.0000 N   0  0  0  0  0  0  0  0  0  0  0  0
   -6.3846    2.8066    0.0000 C   0  0  0  0  0  0  0  0  0  0  0  0
   -3.7364    1.9897    0.0000 C   0  0  0  0  0  0  0  0  0  0  0  0
   -2.6482    0.8169    0.0000 C   0  0  0  0  0  0  0  0  0  0  0  0
   -1.0883    1.1729    0.0000 C   0  0  0  0  0  0  0  0  0  0  0  0
    0.0000    0.0000    0.0000 C   0  0  0  0  0  0  0  0  0  0  0  0
   -0.5845   -1.4894    0.0000 C   0  0  0  0  0  0  0  0  0  0  0  0
   -2.1845   -1.4894    0.0000 C   0  0  0  0  0  0  0  0  0  0  0  0
   -2.9845   -2.8750    0.0000 C   0  0  0  0  0  0  0  0  0  0  0  0
   -2.1845   -4.2607    0.0000 C   0  0  0  0  0  0  0  0  0  0  0  0
   -0.5845   -4.2607    0.0000 C   0  0  0  0  0  0  0  0  0  0  0  0
    0.2155   -2.8750    0.0000 C   0  0  0  0  0  0  0  0  0  0  0  0
    1.7976   -3.1135    0.0000 C   0  0  0  0  0  0  0  0  0  0  0  0
    2.9705   -2.0252    0.0000 C   0  0  0  0  0  0  0  0  0  0  0  0
    2.8509   -0.4297    0.0000 C   0  0  0  0  0  0  0  0  0  0  0  0
    4.2924    0.2645    0.0000 C   0  0  0  0  0  0  0  0  0  0  0  0
    4.4120    1.8600    0.0000 C   0  0  0  0  0  0  0  0  0  0  0  0
    3.0900    2.7613    0.0000 C   0  0  0  0  0  0  0  0  0  0  0  0
    1.6485    2.0671    0.0000 C   0  0  0  0  0  0  0  0  0  0  0  0
    1.5289    0.4716    0.0000 C   0  0  0  0  0  0  0  0  0  0  0  0
  1  2  1  0  0  0  0
  1  3  1  0  0  0  0
  3  4  1  0  0  0  0
  4  5  1  0  0  0  0
  5  6  1  0  0  0  0
  6  7  1  0  0  0  0
  6 20  1  0  0  0  0
  7  8  1  0  0  0  0
  7 12  2  0  0  0  0
  8  9  2  0  0  0  0
  9 10  1  0  0  0  0
 10 11  2  0  0  0  0
 11 12  1  0  0  0  0
 12 13  1  0  0  0  0
 13 14  2  0  0  0  0
 14 15  1  0  0  0  0
 15 16  1  0  0  0  0
 15 20  2  0  0  0  0
 16 17  2  0  0  0  0
 17 18  1  0  0  0  0
 18 19  2  0  0  0  0
 19 20  1  0  0  0  0
M  END
> <Acceptable>
false

> <IC50>
1.17

$$$$

Generated by Molecular Materials Informatics

 25 27  0  0  0  0  0  0  0  0999 V2000
    0.0000    4.8000    0.0000 Cl  0  0  0  0  0  0  0  0  0  0  0  0
    0.0000    3.2000    0.0000 C   0  0  0  0  0  0  0  0  0  0  0  0
    1.3856    2.4000    0.0000 C   0  0  0  0  0  0  0  0  0  0  0  0
    1.3856    0.8000    0.0000 C   0  0  0  0  0  0  0  0  0  0  0  0
    0.0000    0.0000    0.0000 C   0  0  0  0  0  0  0  0  0  0  0  0
   -0.3327   -1.5650    0.0000 O   0  0  0  0  0  0  0  0  0  0  0  0
   -1.9239   -1.7323    0.0000 C   0  0  0  0  0  0  0  0  0  0  0  0
   -2.5747   -0.2706    0.0000 C   0  0  0  0  0  0  0  0  0  0  0  0
   -1.3856    0.8000    0.0000 C   0  0  0  0  0  0  0  0  0  0  0  0
   -1.3856    2.4000    0.0000 C   0  0  0  0  0  0  0  0  0  0  0  0
   -2.7713    3.2000    0.0000 N   0  0  0  0  0  0  0  0  0  0  0  0
    2.7713    0.0000    0.0000 C   0  0  0  0  0  0  0  0  0  0  0  0
    2.7713   -1.6000    0.0000 O   0  0  0  0  0  0  0  0  0  0  0  0
    4.1569    0.8000    0.0000 N   0  0  0  0  0  0  0  0  0  0  0  0
    5.5426    0.0000    0.0000 C   0  0  0  0  0  0  0  0  0  0  0  0
    6.9282    0.8000    0.0000 C   0  0  0  0  0  0  0  0  0  0  0  0
    8.3138    0.0000    0.0000 C   0  0  0  0  0  0  0  0  0  0  0  0
    8.3138   -1.6000    0.0000 N   0  0  0  0  0  0  0  0  0  0  0  0
    6.9282   -2.4000    0.0000 C   0  0  0  0  0  0  0  0  0  0  0  0
    5.5426   -1.6000    0.0000 C   0  0  0  0  0  0  0  0  0  0  0  0
    9.6995   -2.4000    0.0000 C   0  0  0  0  0  0  0  0  0  0  0  0
   11.0851   -1.6000    0.0000 C   0  0  0  0  0  0  0  0  0  0  0  0
   12.4708   -2.4000    0.0000 C   0  0  0  0  0  0  0  0  0  0  0  0
   13.8564   -1.6000    0.0000 O   0  0  0  0  0  0  0  0  0  0  0  0
   15.2420   -2.4000    0.0000 C   0  0  0  0  0  0  0  0  0  0  0  0
  1  2  1  0  0  0  0
  2  3  1  0  0  0  0
  2 10  2  0  0  0  0
  3  4  2  0  0  0  0
  4  5  1  0  0  0  0
  4 12  1  0  0  0  0
  5  6  1  0  0  0  0
  5  9  2  0  0  0  0
  6  7  1  0  0  0  0
  7  8  1  0  0  0  0
  8  9  1  0  0  0  0
  9 10  1  0  0  0  0
 10 11  1  0  0  0  0
 12 13  2  0  0  0  0
 12 14  1  0  0  0  0
 15 14  1  6  0  0  0
 15 16  1  0  0  0  0
 15 20  1  0  0  0  0
 16 17  1  0  0  0  0
 17 18  1  0  0  0  0
 18 19  1  0  0  0  0
 18 21  1  1  0  0  0
 19 20  1  0  0  0  0
 21 22  1  0  0  0  0
 22 23  1  0  0  0  0
 23 24  1  0  0  0  0
 24 25  1  0  0  0  0
M  END
> <Acceptable>
false

> <IC50>
4.1

$$$$

Generated by Molecular Materials Informatics

 32 36  0  0  0  0  0  0  0  0999 V2000
   -1.6000    1.6000    0.0000 S   0  0  0  0  0  0  0  0  0  0  0  0
    3.2000   -5.5426    0.0000 F   0  0  0  0  0  0  0  0  0  0  0  0
    9.7492   -5.6186    0.0000 O   0  0  0  0  0  0  0  0  0  0  0  0
   -2.4000   -4.1569    0.0000 O   0  0  0  0  0  0  0  0  0  0  0  0
   12.3239   -5.8892    0.0000 O   0  0  0  0  0  0  0  0  0  0  0  0
   -4.8000   -2.7713    0.0000 O   0  0  0  0  0  0  0  0  0  0  0  0
   -4.8000    0.0000    0.0000 O   0  0  0  0  0  0  0  0  0  0  0  0
   10.7710   -8.2804    0.0000 O   0  0  0  0  0  0  0  0  0  0  0  0
    4.8000   -2.7713    0.0000 N   0  0  0  0  0  0  0  0  0  0  0  0
    8.0000   -2.7713    0.0000 N   0  0  0  0  0  0  0  0  0  0  0  0
    0.0000    0.0000    0.0000 N   0  0  0  0  0  0  0  0  0  0  0  0
    5.6000   -1.3856    0.0000 C   0  0  0  0  0  0  0  0  0  0  0  0
    5.6000   -4.1569    0.0000 C   0  0  0  0  0  0  0  0  0  0  0  0
    7.2000   -1.3856    0.0000 C   0  0  0  0  0  0  0  0  0  0  0  0
    7.2000   -4.1569    0.0000 C   0  0  0  0  0  0  0  0  0  0  0  0
    3.2000   -2.7713    0.0000 C   0  0  0  0  0  0  0  0  0  0  0  0
    0.8000   -1.3856    0.0000 C   0  0  0  0  0  0  0  0  0  0  0  0
    0.0000    1.6000    0.0000 C   0  0  0  0  0  0  0  0  0  0  0  0
   -1.6000    0.0000    0.0000 C   0  0  0  0  0  0  0  0  0  0  0  0
    9.6000   -2.7713    0.0000 C   0  0  0  0  0  0  0  0  0  0  0  0
    2.4000   -1.3856    0.0000 C   0  0  0  0  0  0  0  0  0  0  0  0
    0.0000   -2.7713    0.0000 C   0  0  0  0  0  0  0  0  0  0  0  0
    2.4000   -4.1569    0.0000 C   0  0  0  0  0  0  0  0  0  0  0  0
   -2.4000   -1.3856    0.0000 C   0  0  0  0  0  0  0  0  0  0  0  0
    0.8000   -4.1569    0.0000 C   0  0  0  0  0  0  0  0  0  0  0  0
   -1.6000   -2.7713    0.0000 C   0  0  0  0  0  0  0  0  0  0  0  0
    1.1314    2.7314    0.0000 C   0  0  0  0  0  0  0  0  0  0  0  0
   10.4000   -4.1569    0.0000 C   0  0  0  0  0  0  0  0  0  0  0  0
   11.9912   -4.3242    0.0000 C   0  0  0  0  0  0  0  0  0  0  0  0
   -4.0000   -1.3856    0.0000 C   0  0  0  0  0  0  0  0  0  0  0  0
   13.0618   -3.1351    0.0000 C   0  0  0  0  0  0  0  0  0  0  0  0
   10.9383   -6.6892    0.0000 C   0  0  0  0  0  0  0  0  0  0  0  0
  1 18  1  0  0  0  0
  1 19  1  0  0  0  0
  2 23  1  0  0  0  0
  3 28  1  0  0  0  0
  3 32  1  0  0  0  0
  4 26  2  0  0  0  0
  5 29  1  0  0  0  0
  5 32  1  0  0  0  0
  6 30  1  0  0  0  0
  7 30  2  0  0  0  0
  8 32  2  0  0  0  0
  9 12  1  0  0  0  0
  9 13  1  0  0  0  0
  9 16  1  0  0  0  0
 10 14  1  0  0  0  0
 10 15  1  0  0  0  0
 10 20  1  0  0  0  0
 11 17  1  0  0  0  0
 11 18  1  0  0  0  0
 11 19  1  0  0  0  0
 12 14  1  0  0  0  0
 13 15  1  0  0  0  0
 16 21  1  0  0  0  0
 16 23  2  0  0  0  0
 17 21  2  0  0  0  0
 17 22  1  0  0  0  0
 18 27  1  6  0  0  0
 19 24  2  0  0  0  0
 20 28  1  0  0  0  0
 22 25  2  0  0  0  0
 22 26  1  0  0  0  0
 23 25  1  0  0  0  0
 24 26  1  0  0  0  0
 24 30  1  0  0  0  0
 28 29  2  0  0  0  0
 29 31  1  0  0  0  0
M  END
> <Acceptable>
true

> <IC50>
316.2

$$$$

Generated by Molecular Materials Informatics

 13 13  0  0  0  0  0  0  0  0999 V2000
   -4.1569    0.8000    0.0000 O   0  0  0  0  0  0  0  0  0  0  0  0
   -2.7713    0.0000    0.0000 C   0  0  0  0  0  0  0  0  0  0  0  0
   -2.7713   -1.6000    0.0000 C   0  0  0  0  0  0  0  0  0  0  0  0
   -1.3856   -2.4000    0.0000 C   0  0  0  0  0  0  0  0  0  0  0  0
    0.0000   -1.6000    0.0000 C   0  0  0  0  0  0  0  0  0  0  0  0
    0.0000    0.0000    0.0000 C   0  0  0  0  0  0  0  0  0  0  0  0
   -1.3856    0.8000    0.0000 C   0  0  0  0  0  0  0  0  0  0  0  0
    1.3856    0.8000    0.0000 C   0  0  0  0  0  0  0  0  0  0  0  0
    1.3856    2.4000    0.0000 O   0  0  0  0  0  0  0  0  0  0  0  0
    2.7713    0.0000    0.0000 C   0  0  0  0  0  0  0  0  0  0  0  0
    4.1569    0.8000    0.0000 N   0  0  0  0  0  0  0  0  0  0  0  0
    5.5426    0.0000    0.0000 C   0  0  0  0  0  0  0  0  0  0  0  0
    2.7713   -1.6000    0.0000 C   0  0  0  0  0  0  0  0  0  0  0  0
  1  2  1  0  0  0  0
  2  3  1  0  0  0  0
  2  7  2  0  0  0  0
  3  4  2  0  0  0  0
  4  5  1  0  0  0  0
  5  6  2  0  0  0  0
  6  7  1  0  0  0  0
  6  8  1  0  0  0  0
  8  9  1  6  0  0  0
  8 10  1  0  0  0  0
 10 11  1  0  0  0  0
 10 13  1  1  0  0  0
 11 12  1  0  0  0  0
M  END
> <Acceptable>
true

> <IC50>
N/A

$$$$

Generated by Molecular Materials Informatics

 12 12  0  0  0  0  0  0  0  0999 V2000
   -3.2000   -2.7713    0.0000 O   0  0  0  0  0  0  0  0  0  0  0  0
   -2.4000   -1.3856    0.0000 C   0  0  0  0  0  0  0  0  0  0  0  0
   -0.8000   -1.3856    0.0000 C   0  0  0  0  0  0  0  0  0  0  0  0
    0.0000   -2.7713    0.0000 C   0  0  0  0  0  0  0  0  0  0  0  0
    1.6000   -2.7713    0.0000 N   0  0  0  0  0  0  0  0  0  0  0  0
    2.4000   -1.3856    0.0000 C   0  0  0  0  0  0  0  0  0  0  0  0
    4.0000   -1.3856    0.0000 C   0  0  0  0  0  0  0  0  0  0  0  0
    1.6000    0.0000    0.0000 C   0  0  0  0  0  0  0  0  0  0  0  0
    2.4000    1.3856    0.0000 O   0  0  0  0  0  0  0  0  0  0  0  0
    0.0000    0.0000    0.0000 C   0  0  0  0  0  0  0  0  0  0  0  0
   -0.8000    1.3856    0.0000 C   0  0  0  0  0  0  0  0  0  0  0  0
   -2.4000    1.3856    0.0000 O   0  0  0  0  0  0  0  0  0  0  0  0
  1  2  1  0  0  0  0
  2  3  1  0  0  0  0
  3  4  1  0  0  0  0
  3 10  2  0  0  0  0
  4  5  2  0  0  0  0
  5  6  1  0  0  0  0
  6  7  1  0  0  0  0
  6  8  2  0  0  0  0
  8  9  1  0  0  0  0
  8 10  1  0  0  0  0
 10 11  1  0  0  0  0
 11 12  1  0  0  0  0
M  END
> <Acceptable>
true

> <IC50>
N/A

$$$$

Generated by Molecular Materials Informatics

 21 22  0  0  0  0  0  0  0  0999 V2000
   -6.9282    2.4000    0.0000 O   0  0  0  0  0  0  0  0  0  0  0  0
   -8.3138    1.6000    0.0000 C   0  0  0  0  0  0  0  0  0  0  0  0
   -5.5426    1.6000    0.0000 C   0  0  0  0  0  0  0  0  0  0  0  0
   -4.1569    2.4000    0.0000 C   0  0  0  0  0  0  0  0  0  0  0  0
   -2.7713    1.6000    0.0000 C   0  0  0  0  0  0  0  0  0  0  0  0
   -2.7713    0.0000    0.0000 C   0  0  0  0  0  0  0  0  0  0  0  0
   -4.1569   -0.8000    0.0000 C   0  0  0  0  0  0  0  0  0  0  0  0
   -5.5426    0.0000    0.0000 C   0  0  0  0  0  0  0  0  0  0  0  0
   -1.3856   -0.8000    0.0000 C   0  0  0  0  0  0  0  0  0  0  0  0
    0.0000    0.0000    0.0000 N   0  0  0  0  0  0  0  0  0  0  0  0
    0.0000    1.6000    0.0000 C   0  0  0  0  0  0  0  0  0  0  0  0
    1.3856    2.4000    0.0000 C   0  0  0  0  0  0  0  0  0  0  0  0
    1.3856    4.0000    0.0000 N   0  0  0  0  0  0  0  0  0  0  0  0
    0.0000    4.8000    0.0000 C   0  0  0  0  0  0  0  0  0  0  0  0
    2.7713    4.8000    0.0000 C   0  0  0  0  0  0  0  0  0  0  0  0
    1.3856   -0.8000    0.0000 C   0  0  0  0  0  0  0  0  0  0  0  0
    2.7713    0.0000    0.0000 N   0  0  0  0  0  0  0  0  0  0  0  0
    4.1569   -0.8000    0.0000 C   0  0  0  0  0  0  0  0  0  0  0  0
    4.1569   -2.4000    0.0000 C   0  0  0  0  0  0  0  0  0  0  0  0
    2.7713   -3.2000    0.0000 C   0  0  0  0  0  0  0  0  0  0  0  0
    1.3856   -2.4000    0.0000 C   0  0  0  0  0  0  0  0  0  0  0  0
  1  2  1  0  0  0  0
  1  3  1  0  0  0  0
  3  4  1  0  0  0  0
  3  8  2  0  0  0  0
  4  5  2  0  0  0  0
  5  6  1  0  0  0  0
  6  7  2  0  0  0  0
  6  9  1  0  0  0  0
  7  8  1  0  0  0  0
  9 10  1  0  0  0  0
 10 11  1  0  0  0  0
 10 16  1  0  0  0  0
 11 12  1  0  0  0  0
 12 13  1  0  0  0  0
 13 14  1  0  0  0  0
 13 15  1  0  0  0  0
 16 17  1  0  0  0  0
 16 21  2  0  0  0  0
 17 18  2  0  0  0  0
 18 19  1  0  0  0  0
 19 20  2  0  0  0  0
 20 21  1  0  0  0  0
M  END
> <Acceptable>
false

> <IC50>
2.45

$$$$

Generated by Molecular Materials Informatics

 17 18  0  0  0  0  0  0  0  0999 V2000
   -5.5426    3.2000    0.0000 Cl  0  0  0  0  0  0  0  0  0  0  0  0
   -4.1569    2.4000    0.0000 C   0  0  0  0  0  0  0  0  0  0  0  0
   -4.1569    0.8000    0.0000 C   0  0  0  0  0  0  0  0  0  0  0  0
   -2.7713    0.0000    0.0000 C   0  0  0  0  0  0  0  0  0  0  0  0
   -1.3856    0.8000    0.0000 C   0  0  0  0  0  0  0  0  0  0  0  0
   -1.3856    2.4000    0.0000 C   0  0  0  0  0  0  0  0  0  0  0  0
   -2.7713    3.2000    0.0000 C   0  0  0  0  0  0  0  0  0  0  0  0
    0.0000    0.0000    0.0000 C   0  0  0  0  0  0  0  0  0  0  0  0
    0.0000   -1.6000    0.0000 C   0  0  0  0  0  0  0  0  0  0  0  0
   -1.3856   -2.4000    0.0000 N   0  0  0  0  0  0  0  0  0  0  0  0
    1.3856   -2.4000    0.0000 N   0  0  0  0  0  0  0  0  0  0  0  0
    2.7713   -1.6000    0.0000 C   0  0  0  0  0  0  0  0  0  0  0  0
    4.1569   -2.4000    0.0000 N   0  0  0  0  0  0  0  0  0  0  0  0
    2.7713    0.0000    0.0000 N   0  0  0  0  0  0  0  0  0  0  0  0
    1.3856    0.8000    0.0000 C   0  0  0  0  0  0  0  0  0  0  0  0
    1.3856    2.4000    0.0000 C   0  0  0  0  0  0  0  0  0  0  0  0
    2.7713    3.2000    0.0000 C   0  0  0  0  0  0  0  0  0  0  0  0
  1  2  1  0  0  0  0
  2  3  1  0  0  0  0
  2  7  2  0  0  0  0
  3  4  2  0  0  0  0
  4  5  1  0  0  0  0
  5  6  2  0  0  0  0
  5  8  1  0  0  0  0
  6  7  1  0  0  0  0
  8  9  1  0  0  0  0
  8 15  2  0  0  0  0
  9 10  1  0  0  0  0
  9 11  2  0  0  0  0
 11 12  1  0  0  0  0
 12 13  1  0  0  0  0
 12 14  2  0  0  0  0
 14 15  1  0  0  0  0
 15 16  1  0  0  0  0
 16 17  1  0  0  0  0
M  END
> <Acceptable>
true

> <IC50>
N/A

$$$$

Generated by Molecular Materials Informatics

 27 30  0  0  0  0  0  0  0  0999 V2000
   -3.5952    0.0000    0.0000 S   0  0  0  0  0  0  0  0  0  0  0  0
   -3.2391    1.5599    0.0000 C   0  0  0  0  0  0  0  0  0  0  0  0
   -4.5611    2.4612    0.0000 C   0  0  0  0  0  0  0  0  0  0  0  0
   -4.4416    4.0567    0.0000 C   0  0  0  0  0  0  0  0  0  0  0  0
   -3.0000    4.7509    0.0000 C   0  0  0  0  0  0  0  0  0  0  0  0
   -1.6780    3.8496    0.0000 C   0  0  0  0  0  0  0  0  0  0  0  0
   -1.7976    2.2541    0.0000 C   0  0  0  0  0  0  0  0  0  0  0  0
   -0.3560    1.5599    0.0000 N   0  0  0  0  0  0  0  0  0  0  0  0
    0.0000    0.0000    0.0000 C   0  0  0  0  0  0  0  0  0  0  0  0
    1.5599   -0.3560    0.0000 N   0  0  0  0  0  0  0  0  0  0  0  0
    2.6482    0.8169    0.0000 C   0  0  0  0  0  0  0  0  0  0  0  0
    4.2080    0.4608    0.0000 C   0  0  0  0  0  0  0  0  0  0  0  0
    4.6797   -1.0681    0.0000 N   0  0  0  0  0  0  0  0  0  0  0  0
    3.5914   -2.2410    0.0000 C   0  0  0  0  0  0  0  0  0  0  0  0
    2.0315   -1.8849    0.0000 C   0  0  0  0  0  0  0  0  0  0  0  0
    6.2395   -1.4241    0.0000 C   0  0  0  0  0  0  0  0  0  0  0  0
    7.3278   -0.2512    0.0000 C   0  0  0  0  0  0  0  0  0  0  0  0
    8.8877   -0.6073    0.0000 O   0  0  0  0  0  0  0  0  0  0  0  0
    9.9760    0.5656    0.0000 C   0  0  0  0  0  0  0  0  0  0  0  0
   11.5359    0.2096    0.0000 C   0  0  0  0  0  0  0  0  0  0  0  0
   12.6241    1.3825    0.0000 O   0  0  0  0  0  0  0  0  0  0  0  0
   -0.9976   -1.2509    0.0000 C   0  0  0  0  0  0  0  0  0  0  0  0
   -0.1976   -2.6366    0.0000 C   0  0  0  0  0  0  0  0  0  0  0  0
   -0.9976   -4.0222    0.0000 C   0  0  0  0  0  0  0  0  0  0  0  0
   -2.5976   -4.0222    0.0000 C   0  0  0  0  0  0  0  0  0  0  0  0
   -3.3976   -2.6366    0.0000 C   0  0  0  0  0  0  0  0  0  0  0  0
   -2.5976   -1.2509    0.0000 C   0  0  0  0  0  0  0  0  0  0  0  0
  1  2  1  0  0  0  0
  1 27  1  0  0  0  0
  2  3  1  0  0  0  0
  2  7  2  0  0  0  0
  3  4  2  0  0  0  0
  4  5  1  0  0  0  0
  5  6  2  0  0  0  0
  6  7  1  0  0  0  0
  7  8  1  0  0  0  0
  8  9  2  0  0  0  0
  9 10  1  0  0  0  0
  9 22  1  0  0  0  0
 10 11  1  0  0  0  0
 10 15  1  0  0  0  0
 11 12  1  0  0  0  0
 12 13  1  0  0  0  0
 13 14  1  0  0  0  0
 13 16  1  0  0  0  0
 14 15  1  0  0  0  0
 16 17  1  0  0  0  0
 17 18  1  0  0  0  0
 18 19  1  0  0  0  0
 19 20  1  0  0  0  0
 20 21  1  0  0  0  0
 22 23  1  0  0  0  0
 22 27  2  0  0  0  0
 23 24  2  0  0  0  0
 24 25  1  0  0  0  0
 25 26  2  0  0  0  0
 26 27  1  0  0  0  0
M  END
> <Acceptable>
false

> <IC50>
5.75

$$$$

Generated by Molecular Materials Informatics

 25 27  0  0  0  0  0  0  0  0999 V2000
   -1.3856    0.8000    0.0000 S   0  0  0  0  0  0  0  0  0  0  0  0
   -1.3856    2.4000    0.0000 O   0  0  0  0  0  0  0  0  0  0  0  0
   -2.7713    0.0000    0.0000 C   0  0  0  0  0  0  0  0  0  0  0  0
   -4.1569    0.8000    0.0000 C   0  0  0  0  0  0  0  0  0  0  0  0
   -4.1569    2.4000    0.0000 N   0  0  0  0  0  0  0  0  0  0  0  0
   -5.5426    3.2000    0.0000 C   0  0  0  0  0  0  0  0  0  0  0  0
   -6.9282    2.4000    0.0000 C   0  0  0  0  0  0  0  0  0  0  0  0
   -6.9282    0.8000    0.0000 C   0  0  0  0  0  0  0  0  0  0  0  0
   -8.3138    0.0000    0.0000 O   0  0  0  0  0  0  0  0  0  0  0  0
   -9.6995    0.8000    0.0000 C   0  0  0  0  0  0  0  0  0  0  0  0
  -11.0851    0.0000    0.0000 C   0  0  0  0  0  0  0  0  0  0  0  0
  -12.4708    0.8000    0.0000 C   0  0  0  0  0  0  0  0  0  0  0  0
  -13.8564    0.0000    0.0000 O   0  0  0  0  0  0  0  0  0  0  0  0
  -15.2420    0.8000    0.0000 C   0  0  0  0  0  0  0  0  0  0  0  0
   -5.5426    0.0000    0.0000 C   0  0  0  0  0  0  0  0  0  0  0  0
   -5.5426   -1.6000    0.0000 C   0  0  0  0  0  0  0  0  0  0  0  0
    0.0000    0.0000    0.0000 C   0  0  0  0  0  0  0  0  0  0  0  0
    0.1672   -1.5912    0.0000 N   0  0  0  0  0  0  0  0  0  0  0  0
    1.7323   -1.9239    0.0000 C   0  0  0  0  0  0  0  0  0  0  0  0
    2.5323   -3.3095    0.0000 C   0  0  0  0  0  0  0  0  0  0  0  0
    4.1323   -3.3095    0.0000 C   0  0  0  0  0  0  0  0  0  0  0  0
    4.9323   -1.9239    0.0000 C   0  0  0  0  0  0  0  0  0  0  0  0
    4.1323   -0.5383    0.0000 C   0  0  0  0  0  0  0  0  0  0  0  0
    2.5323   -0.5383    0.0000 C   0  0  0  0  0  0  0  0  0  0  0  0
    1.4617    0.6508    0.0000 N   0  0  0  0  0  0  0  0  0  0  0  0
  1  2  1  6  0  0  0
  1  3  1  0  0  0  0
  1 17  1  0  0  0  0
  3  4  1  0  0  0  0
  4  5  1  0  0  0  0
  4 15  2  0  0  0  0
  5  6  2  0  0  0  0
  6  7  1  0  0  0  0
  7  8  2  0  0  0  0
  8  9  1  0  0  0  0
  8 15  1  0  0  0  0
  9 10  1  0  0  0  0
 10 11  1  0  0  0  0
 11 12  1  0  0  0  0
 12 13  1  0  0  0  0
 13 14  1  0  0  0  0
 15 16  1  0  0  0  0
 17 18  2  0  0  0  0
 17 25  1  0  0  0  0
 18 19  1  0  0  0  0
 19 20  1  0  0  0  0
 19 24  2  0  0  0  0
 20 21  2  0  0  0  0
 21 22  1  0  0  0  0
 22 23  2  0  0  0  0
 23 24  1  0  0  0  0
 24 25  1  0  0  0  0
M  END
> <Acceptable>
true

> <IC50>
N/A

$$$$

Generated by Molecular Materials Informatics

 34 38  0  0  0  0  0  0  0  0999 V2000
   -2.2420   -1.2944    0.0000 S   0  0  0  0  0  0  0  0  0  0  0  0
   -1.0530   -2.3650    0.0000 C   0  0  0  0  0  0  0  0  0  0  0  0
   -1.0530   -3.9650    0.0000 C   0  0  0  0  0  0  0  0  0  0  0  0
    0.3327   -4.7650    0.0000 C   0  0  0  0  0  0  0  0  0  0  0  0
    0.3327   -6.3650    0.0000 O   0  0  0  0  0  0  0  0  0  0  0  0
    1.7183   -3.9650    0.0000 C   0  0  0  0  0  0  0  0  0  0  0  0
    1.7183   -2.3650    0.0000 C   0  0  0  0  0  0  0  0  0  0  0  0
    0.3327   -1.5650    0.0000 C   0  0  0  0  0  0  0  0  0  0  0  0
    0.0000    0.0000    0.0000 C   0  0  0  0  0  0  0  0  0  0  0  0
   -1.5912    0.1672    0.0000 C   0  0  0  0  0  0  0  0  0  0  0  0
   -2.3912    1.5529    0.0000 C   0  0  0  0  0  0  0  0  0  0  0  0
   -1.5912    2.9385    0.0000 C   0  0  0  0  0  0  0  0  0  0  0  0
   -2.3912    4.3242    0.0000 C   0  0  0  0  0  0  0  0  0  0  0  0
   -3.9912    4.3242    0.0000 C   0  0  0  0  0  0  0  0  0  0  0  0
   -4.7912    5.7098    0.0000 O   0  0  0  0  0  0  0  0  0  0  0  0
   -4.7912    2.9385    0.0000 C   0  0  0  0  0  0  0  0  0  0  0  0
   -3.9912    1.5529    0.0000 C   0  0  0  0  0  0  0  0  0  0  0  0
    1.0706    1.1890    0.0000 C   0  0  0  0  0  0  0  0  0  0  0  0
    0.5762    2.7107    0.0000 O   0  0  0  0  0  0  0  0  0  0  0  0
    2.6356    0.8564    0.0000 C   0  0  0  0  0  0  0  0  0  0  0  0
    3.1301   -0.6653    0.0000 C   0  0  0  0  0  0  0  0  0  0  0  0
    4.6951   -0.9980    0.0000 C   0  0  0  0  0  0  0  0  0  0  0  0
    5.7657    0.1911    0.0000 C   0  0  0  0  0  0  0  0  0  0  0  0
    7.3308   -0.1416    0.0000 O   0  0  0  0  0  0  0  0  0  0  0  0
    8.4014    1.0474    0.0000 C   0  0  0  0  0  0  0  0  0  0  0  0
    9.9664    0.7148    0.0000 C   0  0  0  0  0  0  0  0  0  0  0  0
   11.0370    1.9038    0.0000 N   0  0  0  0  0  0  0  0  0  0  0  0
   12.6020    1.5712    0.0000 C   0  0  0  0  0  0  0  0  0  0  0  0
   13.6727    2.7602    0.0000 C   0  0  0  0  0  0  0  0  0  0  0  0
   13.1782    4.2819    0.0000 C   0  0  0  0  0  0  0  0  0  0  0  0
   11.6132    4.6145    0.0000 C   0  0  0  0  0  0  0  0  0  0  0  0
   10.5426    3.4255    0.0000 C   0  0  0  0  0  0  0  0  0  0  0  0
    5.2713    1.7127    0.0000 C   0  0  0  0  0  0  0  0  0  0  0  0
    3.7063    2.0454    0.0000 C   0  0  0  0  0  0  0  0  0  0  0  0
  1  2  1  0  0  0  0
  1 10  1  0  0  0  0
  2  3  1  0  0  0  0
  2  8  2  0  0  0  0
  3  4  2  0  0  0  0
  4  5  1  0  0  0  0
  4  6  1  0  0  0  0
  6  7  2  0  0  0  0
  7  8  1  0  0  0  0
  8  9  1  0  0  0  0
  9 10  2  0  0  0  0
  9 18  1  0  0  0  0
 10 11  1  0  0  0  0
 11 12  1  0  0  0  0
 11 17  2  0  0  0  0
 12 13  2  0  0  0  0
 13 14  1  0  0  0  0
 14 15  1  0  0  0  0
 14 16  2  0  0  0  0
 16 17  1  0  0  0  0
 18 19  2  0  0  0  0
 18 20  1  0  0  0  0
 20 21  1  0  0  0  0
 20 34  2  0  0  0  0
 21 22  2  0  0  0  0
 22 23  1  0  0  0  0
 23 24  1  0  0  0  0
 23 33  2  0  0  0  0
 24 25  1  0  0  0  0
 25 26  1  0  0  0  0
 26 27  1  0  0  0  0
 27 28  1  0  0  0  0
 27 32  1  0  0  0  0
 28 29  1  0  0  0  0
 29 30  1  0  0  0  0
 30 31  1  0  0  0  0
 31 32  1  0  0  0  0
 33 34  1  0  0  0  0
M  END
> <Acceptable>
true

> <IC50>
N/A

$$$$

Generated by Molecular Materials Informatics

 32 34  0  0  0  0  0  0  0  0999 V2000
  -12.0000   -4.1569    0.0000 F   0  0  0  0  0  0  0  0  0  0  0  0
   -3.2000    2.7713    0.0000 O   0  0  0  0  0  0  0  0  0  0  0  0
   -4.8000    0.0000    0.0000 O   0  0  0  0  0  0  0  0  0  0  0  0
    4.8000    0.0000    0.0000 O   0  0  0  0  0  0  0  0  0  0  0  0
   -2.4000   -4.1569    0.0000 O   0  0  0  0  0  0  0  0  0  0  0  0
    4.1492   -4.2330    0.0000 O   0  0  0  0  0  0  0  0  0  0  0  0
    2.4000   -1.3856    0.0000 N   0  0  0  0  0  0  0  0  0  0  0  0
   -0.8000    1.3856    0.0000 N   0  0  0  0  0  0  0  0  0  0  0  0
   -0.8000   -1.3856    0.0000 N   0  0  0  0  0  0  0  0  0  0  0  0
   -4.8000   -2.7713    0.0000 N   0  0  0  0  0  0  0  0  0  0  0  0
    6.3912   -2.9385    0.0000 N   0  0  0  0  0  0  0  0  0  0  0  0
    6.7239   -4.5036    0.0000 N   0  0  0  0  0  0  0  0  0  0  0  0
    1.6000    0.0000    0.0000 C   0  0  0  0  0  0  0  0  0  0  0  0
    0.0000    0.0000    0.0000 C   0  0  0  0  0  0  0  0  0  0  0  0
    2.8694    0.9740    0.0000 C   0  0  0  0  0  0  0  0  0  0  0  0
    1.8088    1.5863    0.0000 C   0  0  0  0  0  0  0  0  0  0  0  0
   -2.4000    1.3856    0.0000 C   0  0  0  0  0  0  0  0  0  0  0  0
   -2.4000   -1.3856    0.0000 C   0  0  0  0  0  0  0  0  0  0  0  0
    0.0000    2.7713    0.0000 C   0  0  0  0  0  0  0  0  0  0  0  0
   -3.2000    0.0000    0.0000 C   0  0  0  0  0  0  0  0  0  0  0  0
    4.0000   -1.3856    0.0000 C   0  0  0  0  0  0  0  0  0  0  0  0
   -3.2000   -2.7713    0.0000 C   0  0  0  0  0  0  0  0  0  0  0  0
    4.8000   -2.7713    0.0000 C   0  0  0  0  0  0  0  0  0  0  0  0
   -5.6000   -4.1569    0.0000 C   0  0  0  0  0  0  0  0  0  0  0  0
   -7.2000   -4.1569    0.0000 C   0  0  0  0  0  0  0  0  0  0  0  0
   -8.0000   -5.5426    0.0000 C   0  0  0  0  0  0  0  0  0  0  0  0
   -8.0000   -2.7713    0.0000 C   0  0  0  0  0  0  0  0  0  0  0  0
    5.3383   -5.3036    0.0000 C   0  0  0  0  0  0  0  0  0  0  0  0
   -9.6000   -5.5426    0.0000 C   0  0  0  0  0  0  0  0  0  0  0  0
   -9.6000   -2.7713    0.0000 C   0  0  0  0  0  0  0  0  0  0  0  0
  -10.4000   -4.1569    0.0000 C   0  0  0  0  0  0  0  0  0  0  0  0
    5.1710   -6.8948    0.0000 C   0  0  0  0  0  0  0  0  0  0  0  0
  1 31  1  0  0  0  0
  2 17  2  0  0  0  0
  3 20  2  0  0  0  0
  4 21  2  0  0  0  0
  5 22  1  0  0  0  0
  6 23  1  0  0  0  0
  6 28  1  0  0  0  0
  7 13  1  0  0  0  0
  7 21  1  0  0  0  0
  8 14  1  0  0  0  0
  8 17  1  0  0  0  0
  8 19  1  0  0  0  0
  9 14  2  0  0  0  0
  9 18  1  0  0  0  0
 10 22  1  0  0  0  0
 10 24  1  0  0  0  0
 11 12  1  0  0  0  0
 11 23  2  0  0  0  0
 12 28  2  0  0  0  0
 13 14  1  0  0  0  0
 13 15  1  0  0  0  0
 13 16  1  0  0  0  0
 17 20  1  0  0  0  0
 18 20  1  0  0  0  0
 18 22  2  0  0  0  0
 21 23  1  0  0  0  0
 24 25  1  0  0  0  0
 25 26  2  0  0  0  0
 25 27  1  0  0  0  0
 26 29  1  0  0  0  0
 27 30  2  0  0  0  0
 28 32  1  0  0  0  0
 29 31  2  0  0  0  0
 30 31  1  0  0  0  0
M  END
> <Acceptable>
true

> <IC50>
N/A

$$$$

Generated by Molecular Materials Informatics

 21 21  0  0  0  0  0  0  0  0999 V2000
   -5.3308   -0.0191    0.0000 S   0  0  0  0  0  0  0  0  0  0  0  0
   -6.7924    0.6317    0.0000 C   0  0  0  0  0  0  0  0  0  0  0  0
   -8.0869   -0.3087    0.0000 C   0  0  0  0  0  0  0  0  0  0  0  0
   -9.5485    0.3420    0.0000 N   0  0  0  0  0  0  0  0  0  0  0  0
  -10.8430   -0.5984    0.0000 C   0  0  0  0  0  0  0  0  0  0  0  0
  -10.6757   -2.1897    0.0000 N   0  0  0  0  0  0  0  0  0  0  0  0
  -11.9702   -3.1301    0.0000 C   0  0  0  0  0  0  0  0  0  0  0  0
  -12.3046    0.0524    0.0000 C   0  0  0  0  0  0  0  0  0  0  0  0
  -13.5991   -0.8881    0.0000 N   0  3  0  0  0  0  0  0  0  0  0  0
  -13.4318   -2.4793    0.0000 O   0  0  0  0  0  0  0  0  0  0  0  0
  -15.0607   -0.2373    0.0000 O   0  5  0  0  0  0  0  0  0  0  0  0
   -4.0363    0.9214    0.0000 C   0  0  0  0  0  0  0  0  0  0  0  0
   -2.5747    0.2706    0.0000 C   0  0  0  0  0  0  0  0  0  0  0  0
   -1.1890    1.0706    0.0000 O   0  0  0  0  0  0  0  0  0  0  0  0
    0.0000    0.0000    0.0000 C   0  0  0  0  0  0  0  0  0  0  0  0
   -0.6508   -1.4617    0.0000 C   0  0  0  0  0  0  0  0  0  0  0  0
   -2.2420   -1.2944    0.0000 C   0  0  0  0  0  0  0  0  0  0  0  0
    1.5650    0.3327    0.0000 C   0  0  0  0  0  0  0  0  0  0  0  0
    2.6356   -0.8564    0.0000 N   0  0  0  0  0  0  0  0  0  0  0  0
    2.1412   -2.3781    0.0000 C   0  0  0  0  0  0  0  0  0  0  0  0
    4.2007   -0.5237    0.0000 C   0  0  0  0  0  0  0  0  0  0  0  0
  1  2  1  0  0  0  0
  1 12  1  0  0  0  0
  2  3  1  0  0  0  0
  3  4  1  0  0  0  0
  4  5  1  0  0  0  0
  5  6  1  0  0  0  0
  5  8  2  0  0  0  0
  6  7  1  0  0  0  0
  8  9  1  0  0  0  0
  9 10  2  0  0  0  0
  9 11  1  0  0  0  0
 12 13  1  0  0  0  0
 13 14  1  0  0  0  0
 13 17  2  0  0  0  0
 14 15  1  0  0  0  0
 15 16  2  0  0  0  0
 15 18  1  0  0  0  0
 16 17  1  0  0  0  0
 18 19  1  0  0  0  0
 19 20  1  0  0  0  0
 19 21  1  0  0  0  0
M  CHG  2   9   1  11  -1
M  END
> <Acceptable>
true

> <IC50>
N/A

$$$$

Generated by Molecular Materials Informatics

 31 33  0  0  0  0  0  0  0  0999 V2000
    2.7713   -1.6000    0.0000 O   0  0  0  0  0  0  0  0  0  0  0  0
    2.7713    0.0000    0.0000 C   0  0  0  0  0  0  0  0  0  0  0  0
    1.3856    0.8000    0.0000 N   0  0  0  0  0  0  0  0  0  0  0  0
    0.0000    0.0000    0.0000 C   0  0  0  0  0  0  0  0  0  0  0  0
    0.0000   -1.6000    0.0000 C   0  0  0  0  0  0  0  0  0  0  0  0
    1.3856   -2.4000    0.0000 C   0  0  0  0  0  0  0  0  0  0  0  0
   -1.3856   -2.4000    0.0000 C   0  0  0  0  0  0  0  0  0  0  0  0
   -2.7713   -1.6000    0.0000 C   0  0  0  0  0  0  0  0  0  0  0  0
   -2.7713    0.0000    0.0000 C   0  0  0  0  0  0  0  0  0  0  0  0
   -1.3856    0.8000    0.0000 C   0  0  0  0  0  0  0  0  0  0  0  0
   -1.3856    2.4000    0.0000 C   0  0  0  0  0  0  0  0  0  0  0  0
    4.1569    0.8000    0.0000 C   0  0  0  0  0  0  0  0  0  0  0  0
    5.5426    0.0000    0.0000 N   0  0  0  0  0  0  0  0  0  0  0  0
    6.9282    0.8000    0.0000 C   0  0  0  0  0  0  0  0  0  0  0  0
    8.3138    0.0000    0.0000 C   0  0  0  0  0  0  0  0  0  0  0  0
    8.3138   -1.6000    0.0000 N   0  0  0  0  0  0  0  0  0  0  0  0
    6.9282   -2.4000    0.0000 C   0  0  0  0  0  0  0  0  0  0  0  0
    5.5426   -1.6000    0.0000 C   0  0  0  0  0  0  0  0  0  0  0  0
    9.6995   -2.4000    0.0000 C   0  0  0  0  0  0  0  0  0  0  0  0
   11.0851   -1.6000    0.0000 C   0  0  0  0  0  0  0  0  0  0  0  0
   11.0851    0.0000    0.0000 O   0  0  0  0  0  0  0  0  0  0  0  0
   12.4708   -2.4000    0.0000 C   0  0  0  0  0  0  0  0  0  0  0  0
   13.8564   -1.6000    0.0000 O   0  0  0  0  0  0  0  0  0  0  0  0
   15.2420   -2.4000    0.0000 C   0  0  0  0  0  0  0  0  0  0  0  0
   16.6277   -1.6000    0.0000 C   0  0  0  0  0  0  0  0  0  0  0  0
   18.0133   -2.4000    0.0000 C   0  0  0  0  0  0  0  0  0  0  0  0
   18.0133   -4.0000    0.0000 C   0  0  0  0  0  0  0  0  0  0  0  0
   16.6277   -4.8000    0.0000 C   0  0  0  0  0  0  0  0  0  0  0  0
   15.2421   -4.0000    0.0000 C   0  0  0  0  0  0  0  0  0  0  0  0
   13.8564   -4.8000    0.0000 O   0  0  0  0  0  0  0  0  0  0  0  0
   13.8564   -6.4000    0.0000 C   0  0  0  0  0  0  0  0  0  0  0  0
  1  2  2  0  0  0  0
  2  3  1  0  0  0  0
  2 12  1  0  0  0  0
  3  4  1  0  0  0  0
  4  5  1  0  0  0  0
  4 10  2  0  0  0  0
  5  6  1  0  0  0  0
  5  7  2  0  0  0  0
  7  8  1  0  0  0  0
  8  9  2  0  0  0  0
  9 10  1  0  0  0  0
 10 11  1  0  0  0  0
 13 12  1  6  0  0  0
 13 14  1  0  0  0  0
 13 18  1  0  0  0  0
 14 15  1  0  0  0  0
 15 16  1  0  0  0  0
 16 17  1  0  0  0  0
 16 19  1  1  0  0  0
 17 18  1  0  0  0  0
 19 20  1  0  0  0  0
 20 21  1  6  0  0  0
 20 22  1  0  0  0  0
 22 23  1  0  0  0  0
 23 24  1  0  0  0  0
 24 25  1  0  0  0  0
 24 29  2  0  0  0  0
 25 26  2  0  0  0  0
 26 27  1  0  0  0  0
 27 28  2  0  0  0  0
 28 29  1  0  0  0  0
 29 30  1  0  0  0  0
 30 31  1  0  0  0  0
M  END
> <Acceptable>
false

> <IC50>
14.6

$$$$

Generated by Molecular Materials Informatics

 22 24  0  0  0  0  0  0  0  0999 V2000
   -4.0184    1.3312    0.0000 Cl  0  0  0  0  0  0  0  0  0  0  0  0
   -2.7480    0.3586    0.0000 C   0  0  0  0  0  0  0  0  0  0  0  0
   -1.2705    0.9726    0.0000 C   0  0  0  0  0  0  0  0  0  0  0  0
    0.0000    0.0000    0.0000 C   0  0  0  0  0  0  0  0  0  0  0  0
   -0.2071   -1.5865    0.0000 C   0  0  0  0  0  0  0  0  0  0  0  0
    1.0634   -2.5591    0.0000 O   0  0  0  0  0  0  0  0  0  0  0  0
    0.8563   -4.1457    0.0000 C   0  0  0  0  0  0  0  0  0  0  0  0
   -1.6846   -2.2005    0.0000 C   0  0  0  0  0  0  0  0  0  0  0  0
   -2.9550   -1.2279    0.0000 C   0  0  0  0  0  0  0  0  0  0  0  0
   -4.4326   -1.8418    0.0000 N   0  0  0  0  0  0  0  0  0  0  0  0
    1.4775    0.6139    0.0000 C   0  0  0  0  0  0  0  0  0  0  0  0
    1.6846    2.2005    0.0000 O   0  0  0  0  0  0  0  0  0  0  0  0
    2.7480   -0.3586    0.0000 N   0  0  0  0  0  0  0  0  0  0  0  0
    4.2255    0.2553    0.0000 C   0  0  0  0  0  0  0  0  0  0  0  0
    4.7221    1.8208    0.0000 C   0  0  0  0  0  0  0  0  0  0  0  0
    5.3057    0.5488    0.0000 C   0  0  0  0  0  0  0  0  0  0  0  0
    6.9880   -0.2832    0.0000 N   0  0  0  0  0  0  0  0  0  0  0  0
    7.8897    1.2814    0.0000 C   0  0  0  0  0  0  0  0  0  0  0  0
    6.6498    2.2853    0.0000 C   0  0  0  0  0  0  0  0  0  0  0  0
    6.8761    1.0098    0.0000 C   0  0  0  0  0  0  0  0  0  0  0  0
    5.9511   -0.6344    0.0000 C   0  0  0  0  0  0  0  0  0  0  0  0
    7.1898   -1.6472    0.0000 C   0  0  0  0  0  0  0  0  0  0  0  0
  1  2  1  0  0  0  0
  2  3  1  0  0  0  0
  2  9  2  0  0  0  0
  3  4  2  0  0  0  0
  4  5  1  0  0  0  0
  4 11  1  0  0  0  0
  5  6  1  0  0  0  0
  5  8  2  0  0  0  0
  6  7  1  0  0  0  0
  8  9  1  0  0  0  0
  9 10  1  0  0  0  0
 11 12  2  0  0  0  0
 11 13  1  0  0  0  0
 14 13  1  1  0  0  0
 14 15  1  0  0  0  0
 14 21  1  0  0  0  0
 15 16  1  0  0  0  0
 16 17  1  0  0  0  0
 17 18  1  0  0  0  0
 17 22  1  0  0  0  0
 18 19  1  0  0  0  0
 19 20  1  0  0  0  0
 20 21  1  0  0  0  0
 21 22  1  1  0  0  0
M  END
> <Acceptable>
false

> <IC50>
2

$$$$

Generated by Molecular Materials Informatics

 33 35  0  0  0  0  0  0  0  0999 V2000
    4.1569   -2.4000    0.0000 O   0  0  0  0  0  0  0  0  0  0  0  0
    4.1569   -0.8000    0.0000 C   0  0  0  0  0  0  0  0  0  0  0  0
    2.7713    0.0000    0.0000 N   0  0  0  0  0  0  0  0  0  0  0  0
    1.3856   -0.8000    0.0000 C   0  0  0  0  0  0  0  0  0  0  0  0
    1.3856   -2.4000    0.0000 C   0  0  0  0  0  0  0  0  0  0  0  0
    0.0000   -3.2000    0.0000 C   0  0  0  0  0  0  0  0  0  0  0  0
   -1.3856   -2.4000    0.0000 C   0  0  0  0  0  0  0  0  0  0  0  0
    0.0000   -4.8000    0.0000 C   0  0  0  0  0  0  0  0  0  0  0  0
    0.0000    0.0000    0.0000 C   0  0  0  0  0  0  0  0  0  0  0  0
   -1.3856   -0.8000    0.0000 C   0  0  0  0  0  0  0  0  0  0  0  0
   -2.7713    0.0000    0.0000 C   0  0  0  0  0  0  0  0  0  0  0  0
   -2.7713    1.6000    0.0000 C   0  0  0  0  0  0  0  0  0  0  0  0
   -1.3856    2.4000    0.0000 C   0  0  0  0  0  0  0  0  0  0  0  0
    0.0000    1.6000    0.0000 C   0  0  0  0  0  0  0  0  0  0  0  0
    1.3856    2.4000    0.0000 N   0  0  0  0  0  0  0  0  0  0  0  0
    2.7713    1.6000    0.0000 C   0  0  0  0  0  0  0  0  0  0  0  0
    4.1569    2.4000    0.0000 C   0  0  0  0  0  0  0  0  0  0  0  0
    4.1569    4.0000    0.0000 C   0  0  0  0  0  0  0  0  0  0  0  0
    2.7713    4.8000    0.0000 C   0  0  0  0  0  0  0  0  0  0  0  0
    1.3856    4.0000    0.0000 C   0  0  0  0  0  0  0  0  0  0  0  0
    5.5426    0.0000    0.0000 C   0  0  0  0  0  0  0  0  0  0  0  0
    6.9282   -0.8000    0.0000 C   0  0  0  0  0  0  0  0  0  0  0  0
    6.9282   -2.4000    0.0000 C   0  0  0  0  0  0  0  0  0  0  0  0
    8.3138   -3.2000    0.0000 C   0  0  0  0  0  0  0  0  0  0  0  0
    9.6995   -2.4000    0.0000 C   0  0  0  0  0  0  0  0  0  0  0  0
    9.6995   -0.8000    0.0000 C   0  0  0  0  0  0  0  0  0  0  0  0
   11.0851    0.0000    0.0000 O   0  0  0  0  0  0  0  0  0  0  0  0
   11.0851    1.6000    0.0000 C   0  0  0  0  0  0  0  0  0  0  0  0
   12.4708    2.4000    0.0000 C   0  0  0  0  0  0  0  0  0  0  0  0
    8.3138    0.0000    0.0000 C   0  0  0  0  0  0  0  0  0  0  0  0
   11.0851   -3.2000    0.0000 C   0  0  0  0  0  0  0  0  0  0  0  0
   12.4708   -2.4000    0.0000 O   0  0  0  0  0  0  0  0  0  0  0  0
   11.0851   -4.8000    0.0000 O   0  0  0  0  0  0  0  0  0  0  0  0
  1  2  2  0  0  0  0
  2  3  1  0  0  0  0
  2 21  1  0  0  0  0
  3  4  1  0  0  0  0
  4  5  1  6  0  0  0
  4  9  1  0  0  0  0
  5  6  1  0  0  0  0
  6  7  1  0  0  0  0
  6  8  1  0  0  0  0
  9 10  1  0  0  0  0
  9 14  2  0  0  0  0
 10 11  2  0  0  0  0
 11 12  1  0  0  0  0
 12 13  2  0  0  0  0
 13 14  1  0  0  0  0
 14 15  1  0  0  0  0
 15 16  1  0  0  0  0
 15 20  1  0  0  0  0
 16 17  1  0  0  0  0
 17 18  1  0  0  0  0
 18 19  1  0  0  0  0
 19 20  1  0  0  0  0
 21 22  1  0  0  0  0
 22 23  1  0  0  0  0
 22 30  2  0  0  0  0
 23 24  2  0  0  0  0
 24 25  1  0  0  0  0
 25 26  2  0  0  0  0
 25 31  1  0  0  0  0
 26 27  1  0  0  0  0
 26 30  1  0  0  0  0
 27 28  1  0  0  0  0
 28 29  1  0  0  0  0
 31 32  2  0  0  0  0
 31 33  1  0  0  0  0
M  END
> <Acceptable>
true

> <IC50>
N/A

$$$$

Generated by Molecular Materials Informatics

 17 18  0  0  0  0  0  0  0  0999 V2000
   -5.5092   -2.7710    0.0000 O   0  0  0  0  0  0  0  0  0  0  0  0
   -5.5092   -1.1710    0.0000 C   0  0  0  0  0  0  0  0  0  0  0  0
   -6.8948   -0.3710    0.0000 N   0  0  0  0  0  0  0  0  0  0  0  0
   -4.1235   -0.3710    0.0000 C   0  0  0  0  0  0  0  0  0  0  0  0
   -2.6618   -1.0218    0.0000 N   0  0  0  0  0  0  0  0  0  0  0  0
   -1.5912    0.1672    0.0000 N   0  0  0  0  0  0  0  0  0  0  0  0
   -2.3912    1.5529    0.0000 C   0  0  0  0  0  0  0  0  0  0  0  0
   -3.9563    1.2202    0.0000 N   0  0  0  0  0  0  0  0  0  0  0  0
    0.0000    0.0000    0.0000 C   0  0  0  0  0  0  0  0  0  0  0  0
    0.8000   -1.3856    0.0000 O   0  0  0  0  0  0  0  0  0  0  0  0
    2.3650   -1.0530    0.0000 C   0  0  0  0  0  0  0  0  0  0  0  0
    3.5541   -2.1236    0.0000 C   0  0  0  0  0  0  0  0  0  0  0  0
    3.2214   -3.6886    0.0000 O   0  0  0  0  0  0  0  0  0  0  0  0
    2.5323    0.5383    0.0000 C   0  0  0  0  0  0  0  0  0  0  0  0
    3.9179    1.3383    0.0000 O   0  0  0  0  0  0  0  0  0  0  0  0
    1.0706    1.1890    0.0000 C   0  0  0  0  0  0  0  0  0  0  0  0
    0.7380    2.7541    0.0000 O   0  0  0  0  0  0  0  0  0  0  0  0
  1  2  2  0  0  0  0
  2  3  1  0  0  0  0
  2  4  1  0  0  0  0
  4  5  2  0  0  0  0
  4  8  1  0  0  0  0
  5  6  1  0  0  0  0
  6  7  1  0  0  0  0
  9  6  1  6  0  0  0
  7  8  2  0  0  0  0
  9 10  1  0  0  0  0
  9 16  1  0  0  0  0
 10 11  1  0  0  0  0
 11 12  1  6  0  0  0
 11 14  1  0  0  0  0
 12 13  1  0  0  0  0
 14 15  1  1  0  0  0
 14 16  1  0  0  0  0
 16 17  1  1  0  0  0
M  END
> <Acceptable>
true

> <IC50>
N/A

$$$$

Generated by Molecular Materials Informatics

 15 16  0  0  0  0  0  0  0  0999 V2000
    1.5217    0.4944    0.0000 S   0  0  0  0  0  0  0  0  0  0  0  0
    0.0000    0.0000    0.0000 C   0  0  0  0  0  0  0  0  0  0  0  0
   -1.3856    0.8000    0.0000 C   0  0  0  0  0  0  0  0  0  0  0  0
   -2.7713    0.0000    0.0000 C   0  0  0  0  0  0  0  0  0  0  0  0
   -4.1569    0.8000    0.0000 O   0  0  0  0  0  0  0  0  0  0  0  0
   -5.5426    0.0000    0.0000 C   0  0  0  0  0  0  0  0  0  0  0  0
   -5.5426   -1.6000    0.0000 F   0  0  0  0  0  0  0  0  0  0  0  0
   -6.9282    0.8000    0.0000 F   0  0  0  0  0  0  0  0  0  0  0  0
   -6.9282   -0.8000    0.0000 F   0  0  0  0  0  0  0  0  0  0  0  0
   -2.7713   -1.6000    0.0000 C   0  0  0  0  0  0  0  0  0  0  0  0
   -1.3856   -2.4000    0.0000 C   0  0  0  0  0  0  0  0  0  0  0  0
    0.0000   -1.6000    0.0000 C   0  0  0  0  0  0  0  0  0  0  0  0
    1.5217   -2.0944    0.0000 N   0  0  0  0  0  0  0  0  0  0  0  0
    2.4621   -0.8000    0.0000 C   0  0  0  0  0  0  0  0  0  0  0  0
    4.0621   -0.8000    0.0000 N   0  0  0  0  0  0  0  0  0  0  0  0
  1  2  1  0  0  0  0
  1 14  1  0  0  0  0
  2  3  1  0  0  0  0
  2 12  2  0  0  0  0
  3  4  2  0  0  0  0
  4  5  1  0  0  0  0
  4 10  1  0  0  0  0
  5  6  1  0  0  0  0
  6  7  1  0  0  0  0
  6  8  1  0  0  0  0
  6  9  1  0  0  0  0
 10 11  2  0  0  0  0
 11 12  1  0  0  0  0
 12 13  1  0  0  0  0
 13 14  2  0  0  0  0
 14 15  1  0  0  0  0
M  END
> <Acceptable>
true

> <IC50>
N/A

$$$$

Generated by Molecular Materials Informatics

 13 15  0  0  0  0  0  0  0  0999 V2000
   -2.4002    1.3852    0.0000 N   0  0  0  0  0  0  0  0  0  0  0  0
   -1.6000   -0.0003    0.0000 C   0  0  0  0  0  0  0  0  0  0  0  0
   -2.3998   -1.3861    0.0000 C   0  0  0  0  0  0  0  0  0  0  0  0
    0.0000    0.0000    0.0000 C   0  0  0  0  0  0  0  0  0  0  0  0
    1.4061    0.0892    0.0000 C   0  0  0  0  0  0  0  0  0  0  0  0
    2.7811    0.1085    0.0000 C   0  0  0  0  0  0  0  0  0  0  0  0
    3.4518   -1.0531    0.0000 C   0  0  0  0  0  0  0  0  0  0  0  0
    4.2350   -2.4482    0.0000 C   0  0  0  0  0  0  0  0  0  0  0  0
    5.6537   -0.0013    0.0000 C   0  0  0  0  0  0  0  0  0  0  0  0
    4.2397    2.4478    0.0000 C   0  0  0  0  0  0  0  0  0  0  0  0
    3.4311    1.2040    0.0000 C   0  0  0  0  0  0  0  0  0  0  0  0
    1.4102    2.4445    0.0000 C   0  0  0  0  0  0  0  0  0  0  0  0
    1.4140   -2.4491    0.0000 C   0  0  0  0  0  0  0  0  0  0  0  0
  1  2  1  0  0  0  0
  2  3  1  1  0  0  0
  2  4  1  0  0  0  0
  4  5  1  0  0  0  0
  4 12  1  0  0  0  0
  4 13  1  1  0  0  0
  5  6  1  0  0  0  0
  6  7  1  1  0  0  0
  6 11  1  0  0  0  0
  7  8  1  0  0  0  0
  8  9  1  0  0  0  0
  8 13  1  1  0  0  0
  9 10  1  0  0  0  0
 10 11  1  0  0  0  0
 10 12  1  1  0  0  0
M  END
> <Acceptable>
true

> <IC50>
N/A

$$$$

Generated by Molecular Materials Informatics

 30 34  0  0  0  0  0  0  0  0999 V2000
   -3.5671   -3.2118    0.0000 F   0  0  0  0  0  0  0  0  0  0  0  0
   -2.3781   -2.1412    0.0000 C   0  0  0  0  0  0  0  0  0  0  0  0
   -0.8564   -2.6356    0.0000 C   0  0  0  0  0  0  0  0  0  0  0  0
    0.3327   -1.5650    0.0000 C   0  0  0  0  0  0  0  0  0  0  0  0
    0.0000    0.0000    0.0000 C   0  0  0  0  0  0  0  0  0  0  0  0
   -1.5217    0.4944    0.0000 C   0  0  0  0  0  0  0  0  0  0  0  0
   -1.5217    2.0944    0.0000 O   0  0  0  0  0  0  0  0  0  0  0  0
    0.0000    2.5889    0.0000 N   0  0  0  0  0  0  0  0  0  0  0  0
    0.9405    1.2944    0.0000 C   0  0  0  0  0  0  0  0  0  0  0  0
    2.5405    1.2944    0.0000 C   0  0  0  0  0  0  0  0  0  0  0  0
    3.3405   -0.0912    0.0000 C   0  0  0  0  0  0  0  0  0  0  0  0
    4.9405   -0.0912    0.0000 C   0  0  0  0  0  0  0  0  0  0  0  0
    5.7405    1.2944    0.0000 N   0  0  0  0  0  0  0  0  0  0  0  0
    4.9405    2.6801    0.0000 C   0  0  0  0  0  0  0  0  0  0  0  0
    3.3405    2.6801    0.0000 C   0  0  0  0  0  0  0  0  0  0  0  0
    7.3405    1.2944    0.0000 C   0  0  0  0  0  0  0  0  0  0  0  0
    8.1405   -0.0912    0.0000 C   0  0  0  0  0  0  0  0  0  0  0  0
    9.7405   -0.0912    0.0000 C   0  0  0  0  0  0  0  0  0  0  0  0
   10.5405   -1.4769    0.0000 C   0  0  0  0  0  0  0  0  0  0  0  0
    9.7405   -2.8625    0.0000 O   0  0  0  0  0  0  0  0  0  0  0  0
   12.1405   -1.4769    0.0000 N   0  3  0  0  0  0  0  0  0  0  0  0
   12.9405   -2.8625    0.0000 C   0  0  0  0  0  0  0  0  0  0  0  0
   14.5405   -2.8625    0.0000 C   0  0  0  0  0  0  0  0  0  0  0  0
   15.3405   -1.4769    0.0000 C   0  0  0  0  0  0  0  0  0  0  0  0
   14.5405   -0.0912    0.0000 C   0  0  0  0  0  0  0  0  0  0  0  0
   12.9405   -0.0912    0.0000 C   0  0  0  0  0  0  0  0  0  0  0  0
   12.1405    1.2944    0.0000 N   0  0  0  0  0  0  0  0  0  0  0  0
   10.5405    1.2944    0.0000 C   0  0  0  0  0  0  0  0  0  0  0  0
    9.7405    2.6801    0.0000 C   0  0  0  0  0  0  0  0  0  0  0  0
   -2.7107   -0.5762    0.0000 C   0  0  0  0  0  0  0  0  0  0  0  0
  1  2  1  0  0  0  0
  2  3  1  0  0  0  0
  2 30  2  0  0  0  0
  3  4  2  0  0  0  0
  4  5  1  0  0  0  0
  5  6  2  0  0  0  0
  5  9  1  0  0  0  0
  6  7  1  0  0  0  0
  6 30  1  0  0  0  0
  7  8  1  0  0  0  0
  8  9  2  0  0  0  0
 10  9  1  1  0  0  0
 10 11  1  0  0  0  0
 10 15  1  0  0  0  0
 11 12  1  0  0  0  0
 12 13  1  0  0  0  0
 13 14  1  0  0  0  0
 13 16  1  6  0  0  0
 14 15  1  0  0  0  0
 16 17  1  0  0  0  0
 18 17  1  1  0  0  0
 18 19  1  0  0  0  0
 18 28  1  0  0  0  0
 19 20  2  0  0  0  0
 19 21  1  0  0  0  0
 21 22  1  0  0  0  0
 21 26  2  0  0  0  0
 22 23  1  0  0  0  0
 23 24  1  0  0  0  0
 24 25  1  0  0  0  0
 25 26  1  0  0  0  0
 26 27  1  0  0  0  0
 27 28  2  0  0  0  0
 28 29  1  0  0  0  0
M  CHG  1  21   1
M  END
> <Acceptable>
false

> <IC50>
0.163

$$$$

Generated by Molecular Materials Informatics

 50 53  0  0  0  0  0  0  0  0999 V2000
  -10.1349    8.4152    0.0000 S   0  0  0  0  0  0  0  0  0  0  0  0
  -10.0791   10.0142    0.0000 C   0  0  0  0  0  0  0  0  0  0  0  0
   -8.5411   10.4552    0.0000 N   0  0  0  0  0  0  0  0  0  0  0  0
   -7.6464    9.1288    0.0000 C   0  0  0  0  0  0  0  0  0  0  0  0
   -8.6314    7.8680    0.0000 C   0  0  0  0  0  0  0  0  0  0  0  0
   -8.1904    6.3299    0.0000 C   0  0  0  0  0  0  0  0  0  0  0  0
   -6.6379    5.9429    0.0000 O   0  0  0  0  0  0  0  0  0  0  0  0
   -6.1969    4.4048    0.0000 C   0  0  0  0  0  0  0  0  0  0  0  0
   -4.6444    4.0178    0.0000 O   0  0  0  0  0  0  0  0  0  0  0  0
   -7.3084    3.2539    0.0000 N   0  0  0  0  0  0  0  0  0  0  0  0
   -7.1411    1.6627    0.0000 C   0  0  0  0  0  0  0  0  0  0  0  0
   -8.4355    0.7222    0.0000 C   0  0  0  0  0  0  0  0  0  0  0  0
   -9.8972    1.3730    0.0000 C   0  0  0  0  0  0  0  0  0  0  0  0
  -10.0645    2.9642    0.0000 C   0  0  0  0  0  0  0  0  0  0  0  0
  -11.5261    3.6150    0.0000 C   0  0  0  0  0  0  0  0  0  0  0  0
  -12.8206    2.6745    0.0000 C   0  0  0  0  0  0  0  0  0  0  0  0
  -12.6533    1.0833    0.0000 C   0  0  0  0  0  0  0  0  0  0  0  0
  -11.1916    0.4325    0.0000 C   0  0  0  0  0  0  0  0  0  0  0  0
   -5.6794    1.0119    0.0000 C   0  0  0  0  0  0  0  0  0  0  0  0
   -4.3850    1.9523    0.0000 O   0  0  0  0  0  0  0  0  0  0  0  0
   -5.5122   -0.5794    0.0000 C   0  0  0  0  0  0  0  0  0  0  0  0
   -4.0505   -1.2301    0.0000 C   0  0  0  0  0  0  0  0  0  0  0  0
   -2.7561   -0.2897    0.0000 N   0  0  0  0  0  0  0  0  0  0  0  0
   -1.2944   -0.9405    0.0000 C   0  0  0  0  0  0  0  0  0  0  0  0
   -1.1272   -2.5317    0.0000 O   0  0  0  0  0  0  0  0  0  0  0  0
    0.0000    0.0000    0.0000 C   0  0  0  0  0  0  0  0  0  0  0  0
    1.4617   -0.6508    0.0000 N   0  0  0  0  0  0  0  0  0  0  0  0
    2.7561    0.2897    0.0000 C   0  0  0  0  0  0  0  0  0  0  0  0
    2.5889    1.8809    0.0000 O   0  0  0  0  0  0  0  0  0  0  0  0
    4.2178   -0.3611    0.0000 N   0  0  0  0  0  0  0  0  0  0  0  0
    4.3850   -1.9523    0.0000 C   0  0  0  0  0  0  0  0  0  0  0  0
    5.5122    0.5794    0.0000 C   0  0  0  0  0  0  0  0  0  0  0  0
    6.9739   -0.0714    0.0000 C   0  0  0  0  0  0  0  0  0  0  0  0
    8.3595    0.7286    0.0000 N   0  0  0  0  0  0  0  0  0  0  0  0
    9.5485   -0.3420    0.0000 C   0  0  0  0  0  0  0  0  0  0  0  0
    8.8978   -1.8037    0.0000 S   0  0  0  0  0  0  0  0  0  0  0  0
    7.3065   -1.6365    0.0000 C   0  0  0  0  0  0  0  0  0  0  0  0
   11.1136   -0.0094    0.0000 C   0  0  0  0  0  0  0  0  0  0  0  0
   11.6080    1.5123    0.0000 C   0  0  0  0  0  0  0  0  0  0  0  0
   12.1842   -1.1984    0.0000 C   0  0  0  0  0  0  0  0  0  0  0  0
   -0.1672    1.5912    0.0000 C   0  0  0  0  0  0  0  0  0  0  0  0
    1.1272    2.5317    0.0000 C   0  0  0  0  0  0  0  0  0  0  0  0
   -1.6289    2.2420    0.0000 C   0  0  0  0  0  0  0  0  0  0  0  0
   -3.8833   -2.8214    0.0000 C   0  0  0  0  0  0  0  0  0  0  0  0
   -5.1777   -3.7618    0.0000 C   0  0  0  0  0  0  0  0  0  0  0  0
   -5.0105   -5.3531    0.0000 C   0  0  0  0  0  0  0  0  0  0  0  0
   -6.3049   -6.2935    0.0000 C   0  0  0  0  0  0  0  0  0  0  0  0
   -7.7666   -5.6427    0.0000 C   0  0  0  0  0  0  0  0  0  0  0  0
   -7.9338   -4.0515    0.0000 C   0  0  0  0  0  0  0  0  0  0  0  0
   -6.6394   -3.1110    0.0000 C   0  0  0  0  0  0  0  0  0  0  0  0
  1  2  1  0  0  0  0
  1  5  1  0  0  0  0
  2  3  2  0  0  0  0
  3  4  1  0  0  0  0
  4  5  2  0  0  0  0
  5  6  1  0  0  0  0
  6  7  1  0  0  0  0
  7  8  1  0  0  0  0
  8  9  2  0  0  0  0
  8 10  1  0  0  0  0
 11 10  1  6  0  0  0
 11 12  1  0  0  0  0
 11 19  1  0  0  0  0
 12 13  1  0  0  0  0
 13 14  1  0  0  0  0
 13 18  2  0  0  0  0
 14 15  2  0  0  0  0
 15 16  1  0  0  0  0
 16 17  2  0  0  0  0
 17 18  1  0  0  0  0
 19 20  1  1  0  0  0
 19 21  1  0  0  0  0
 21 22  1  0  0  0  0
 22 23  1  0  0  0  0
 22 44  1  1  0  0  0
 23 24  1  0  0  0  0
 24 25  2  0  0  0  0
 24 26  1  0  0  0  0
 26 27  1  0  0  0  0
 26 41  1  6  0  0  0
 27 28  1  0  0  0  0
 28 29  2  0  0  0  0
 28 30  1  0  0  0  0
 30 31  1  0  0  0  0
 30 32  1  0  0  0  0
 32 33  1  0  0  0  0
 33 34  1  0  0  0  0
 33 37  2  0  0  0  0
 34 35  2  0  0  0  0
 35 36  1  0  0  0  0
 35 38  1  0  0  0  0
 36 37  1  0  0  0  0
 38 39  1  0  0  0  0
 38 40  1  0  0  0  0
 41 42  1  0  0  0  0
 41 43  1  0  0  0  0
 44 45  1  0  0  0  0
 45 46  1  0  0  0  0
 45 50  2  0  0  0  0
 46 47  2  0  0  0  0
 47 48  1  0  0  0  0
 48 49  2  0  0  0  0
 49 50  1  0  0  0  0
M  END
> <Acceptable>
false

> <IC50>
8.2

$$$$

Generated by Molecular Materials Informatics

 18 18  0  0  0  0  0  0  0  0999 V2000
    5.5426   -1.6000    0.0000 O   0  0  0  0  0  0  0  0  0  0  0  0
    5.5426    0.0000    0.0000 C   0  0  0  0  0  0  0  0  0  0  0  0
    4.1569    0.8000    0.0000 O   0  0  0  0  0  0  0  0  0  0  0  0
    2.7713    0.0000    0.0000 C   0  0  0  0  0  0  0  0  0  0  0  0
    2.7713   -1.6000    0.0000 C   0  0  0  0  0  0  0  0  0  0  0  0
    1.3856   -2.4000    0.0000 C   0  0  0  0  0  0  0  0  0  0  0  0
    0.0000   -1.6000    0.0000 C   0  0  0  0  0  0  0  0  0  0  0  0
    0.0000    0.0000    0.0000 C   0  0  0  0  0  0  0  0  0  0  0  0
    1.3856    0.8000    0.0000 C   0  0  0  0  0  0  0  0  0  0  0  0
   -1.3856    0.8000    0.0000 C   0  0  0  0  0  0  0  0  0  0  0  0
   -2.7713    0.0000    0.0000 N   0  0  0  0  0  0  0  0  0  0  0  0
   -2.7713   -1.6000    0.0000 C   0  0  0  0  0  0  0  0  0  0  0  0
   -4.1569    0.8000    0.0000 C   0  0  0  0  0  0  0  0  0  0  0  0
   -1.3856    2.4000    0.0000 C   0  0  0  0  0  0  0  0  0  0  0  0
    6.9282    0.8000    0.0000 N   0  0  0  0  0  0  0  0  0  0  0  0
    6.9282    2.4000    0.0000 C   0  0  0  0  0  0  0  0  0  0  0  0
    8.3138    0.0000    0.0000 C   0  0  0  0  0  0  0  0  0  0  0  0
    9.6995    0.8000    0.0000 C   0  0  0  0  0  0  0  0  0  0  0  0
  1  2  2  0  0  0  0
  2  3  1  0  0  0  0
  2 15  1  0  0  0  0
  3  4  1  0  0  0  0
  4  5  1  0  0  0  0
  4  9  2  0  0  0  0
  5  6  2  0  0  0  0
  6  7  1  0  0  0  0
  7  8  2  0  0  0  0
  8  9  1  0  0  0  0
  8 10  1  0  0  0  0
 10 11  1  0  0  0  0
 10 14  1  1  0  0  0
 11 12  1  0  0  0  0
 11 13  1  0  0  0  0
 15 16  1  0  0  0  0
 15 17  1  0  0  0  0
 17 18  1  0  0  0  0
M  END
> <Acceptable>
true

> <IC50>
N/A

$$$$

Generated by Molecular Materials Informatics

 20 22  0  0  0  0  0  0  0  0999 V2000
   -5.7405    1.4769    0.0000 N   0  0  0  0  0  0  0  0  0  0  0  0
   -4.8000    2.7713    0.0000 N   0  0  0  0  0  0  0  0  0  0  0  0
   -5.7405    4.0657    0.0000 C   0  0  0  0  0  0  0  0  0  0  0  0
   -7.2621    3.5713    0.0000 N   0  0  0  0  0  0  0  0  0  0  0  0
   -7.2621    1.9713    0.0000 C   0  0  0  0  0  0  0  0  0  0  0  0
   -3.2000    2.7713    0.0000 C   0  0  0  0  0  0  0  0  0  0  0  0
   -2.4000    1.3856    0.0000 C   0  0  0  0  0  0  0  0  0  0  0  0
   -3.2000    0.0000    0.0000 C   0  0  0  0  0  0  0  0  0  0  0  0
   -2.4000   -1.3856    0.0000 C   0  0  0  0  0  0  0  0  0  0  0  0
   -0.8000   -1.3856    0.0000 C   0  0  0  0  0  0  0  0  0  0  0  0
    0.2706   -2.5747    0.0000 N   0  0  0  0  0  0  0  0  0  0  0  0
    1.7323   -1.9239    0.0000 C   0  0  0  0  0  0  0  0  0  0  0  0
    1.5650   -0.3327    0.0000 C   0  0  0  0  0  0  0  0  0  0  0  0
    2.7541    0.7380    0.0000 C   0  0  0  0  0  0  0  0  0  0  0  0
    4.2758    0.2435    0.0000 C   0  0  0  0  0  0  0  0  0  0  0  0
    5.4648    1.3141    0.0000 N   0  0  0  0  0  0  0  0  0  0  0  0
    5.1321    2.8792    0.0000 C   0  0  0  0  0  0  0  0  0  0  0  0
    6.9865    0.8197    0.0000 C   0  0  0  0  0  0  0  0  0  0  0  0
    0.0000    0.0000    0.0000 C   0  0  0  0  0  0  0  0  0  0  0  0
   -0.8000    1.3856    0.0000 C   0  0  0  0  0  0  0  0  0  0  0  0
  1  2  1  0  0  0  0
  1  5  2  0  0  0  0
  2  3  1  0  0  0  0
  2  6  1  0  0  0  0
  3  4  2  0  0  0  0
  4  5  1  0  0  0  0
  6  7  1  0  0  0  0
  7  8  1  0  0  0  0
  7 20  2  0  0  0  0
  8  9  2  0  0  0  0
  9 10  1  0  0  0  0
 10 11  1  0  0  0  0
 10 19  2  0  0  0  0
 11 12  2  0  0  0  0
 12 13  1  0  0  0  0
 13 14  1  1  0  0  0
 13 19  1  0  0  0  0
 14 15  1  0  0  0  0
 15 16  1  0  0  0  0
 16 17  1  0  0  0  0
 16 18  1  0  0  0  0
 19 20  1  0  0  0  0
M  END
> <Acceptable>
true

> <IC50>
N/A

$$$$

Generated by Molecular Materials Informatics

 22 24  0  0  0  0  0  0  0  0999 V2000
   -6.6994    3.2674    0.0000 S   0  0  0  0  0  0  0  0  0  0  0  0
   -5.7589    4.5618    0.0000 O   0  0  0  0  0  0  0  0  0  0  0  0
   -7.6399    1.9730    0.0000 O   0  0  0  0  0  0  0  0  0  0  0  0
   -7.9938    4.2079    0.0000 C   0  0  0  0  0  0  0  0  0  0  0  0
   -5.4050    2.3269    0.0000 C   0  0  0  0  0  0  0  0  0  0  0  0
   -5.5722    0.7357    0.0000 C   0  0  0  0  0  0  0  0  0  0  0  0
   -4.2778   -0.2047    0.0000 C   0  0  0  0  0  0  0  0  0  0  0  0
   -2.8161    0.4460    0.0000 C   0  0  0  0  0  0  0  0  0  0  0  0
   -2.6489    2.0373    0.0000 C   0  0  0  0  0  0  0  0  0  0  0  0
   -3.9433    2.9777    0.0000 C   0  0  0  0  0  0  0  0  0  0  0  0
   -1.5217   -0.4944    0.0000 C   0  0  0  0  0  0  0  0  0  0  0  0
   -1.5217   -2.0944    0.0000 C   0  0  0  0  0  0  0  0  0  0  0  0
    0.0000   -2.5889    0.0000 O   0  0  0  0  0  0  0  0  0  0  0  0
    0.9405   -1.2944    0.0000 C   0  0  0  0  0  0  0  0  0  0  0  0
    2.5405   -1.2944    0.0000 O   0  0  0  0  0  0  0  0  0  0  0  0
    0.0000    0.0000    0.0000 C   0  0  0  0  0  0  0  0  0  0  0  0
    0.4944    1.5217    0.0000 C   0  0  0  0  0  0  0  0  0  0  0  0
    2.0595    1.8543    0.0000 C   0  0  0  0  0  0  0  0  0  0  0  0
    2.5539    3.3760    0.0000 C   0  0  0  0  0  0  0  0  0  0  0  0
    1.4833    4.5651    0.0000 C   0  0  0  0  0  0  0  0  0  0  0  0
   -0.0818    4.2324    0.0000 C   0  0  0  0  0  0  0  0  0  0  0  0
   -0.5762    2.7107    0.0000 C   0  0  0  0  0  0  0  0  0  0  0  0
  1  2  2  0  0  0  0
  1  3  2  0  0  0  0
  1  4  1  0  0  0  0
  1  5  1  0  0  0  0
  5  6  1  0  0  0  0
  5 10  2  0  0  0  0
  6  7  2  0  0  0  0
  7  8  1  0  0  0  0
  8  9  2  0  0  0  0
  8 11  1  0  0  0  0
  9 10  1  0  0  0  0
 11 12  1  0  0  0  0
 11 16  2  0  0  0  0
 12 13  1  0  0  0  0
 13 14  1  0  0  0  0
 14 15  2  0  0  0  0
 14 16  1  0  0  0  0
 16 17  1  0  0  0  0
 17 18  1  0  0  0  0
 17 22  2  0  0  0  0
 18 19  2  0  0  0  0
 19 20  1  0  0  0  0
 20 21  2  0  0  0  0
 21 22  1  0  0  0  0
M  END
> <Acceptable>
true

> <IC50>
N/A

$$$$

Generated by Molecular Materials Informatics

 19 20  0  0  0  0  0  0  0  0999 V2000
   -2.7239    3.1179    0.0000 O   0  0  0  0  0  0  0  0  0  0  0  0
   -1.9239    1.7323    0.0000 C   0  0  0  0  0  0  0  0  0  0  0  0
   -2.5747    0.2706    0.0000 N   0  0  0  0  0  0  0  0  0  0  0  0
   -1.3856   -0.8000    0.0000 C   0  0  0  0  0  0  0  0  0  0  0  0
   -1.3856   -2.4000    0.0000 C   0  0  0  0  0  0  0  0  0  0  0  0
    0.0000   -3.2000    0.0000 C   0  0  0  0  0  0  0  0  0  0  0  0
    1.3856   -2.4000    0.0000 C   0  0  0  0  0  0  0  0  0  0  0  0
    1.3856   -0.8000    0.0000 C   0  0  0  0  0  0  0  0  0  0  0  0
    2.7713    0.0000    0.0000 C   0  0  0  0  0  0  0  0  0  0  0  0
    4.1569   -0.8000    0.0000 C   0  0  0  0  0  0  0  0  0  0  0  0
    5.5426    0.0000    0.0000 N   0  0  0  0  0  0  0  0  0  0  0  0
    5.5426    1.6000    0.0000 C   0  0  0  0  0  0  0  0  0  0  0  0
    6.9282    2.4000    0.0000 C   0  0  0  0  0  0  0  0  0  0  0  0
    6.9282    4.0000    0.0000 C   0  0  0  0  0  0  0  0  0  0  0  0
    6.9282   -0.8000    0.0000 C   0  0  0  0  0  0  0  0  0  0  0  0
    8.3138    0.0000    0.0000 C   0  0  0  0  0  0  0  0  0  0  0  0
    9.6995   -0.8000    0.0000 C   0  0  0  0  0  0  0  0  0  0  0  0
    0.0000    0.0000    0.0000 C   0  0  0  0  0  0  0  0  0  0  0  0
   -0.3327    1.5650    0.0000 C   0  0  0  0  0  0  0  0  0  0  0  0
  1  2  2  0  0  0  0
  2  3  1  0  0  0  0
  2 19  1  0  0  0  0
  3  4  1  0  0  0  0
  4  5  1  0  0  0  0
  4 18  2  0  0  0  0
  5  6  2  0  0  0  0
  6  7  1  0  0  0  0
  7  8  2  0  0  0  0
  8  9  1  0  0  0  0
  8 18  1  0  0  0  0
  9 10  1  0  0  0  0
 10 11  1  0  0  0  0
 11 12  1  0  0  0  0
 11 15  1  0  0  0  0
 12 13  1  0  0  0  0
 13 14  1  0  0  0  0
 15 16  1  0  0  0  0
 16 17  1  0  0  0  0
 18 19  1  0  0  0  0
M  END
> <Acceptable>
true

> <IC50>
N/A

$$$$

Generated by Molecular Materials Informatics

 20 21  0  0  0  0  0  0  0  0999 V2000
    0.0000    0.0000    0.0000 C   0  0  0  0  0  0  0  0  0  0  0  0
   -0.8000    1.3856    0.0000 N   0  0  0  0  0  0  0  0  0  0  0  0
    1.6000    0.0000    0.0000 C   0  0  0  0  0  0  0  0  0  0  0  0
   -0.8000   -1.3856    0.0000 C   0  0  0  0  0  0  0  0  0  0  0  0
   -2.4000    1.3856    0.0000 C   0  0  0  0  0  0  0  0  0  0  0  0
    0.0000    2.7713    0.0000 C   0  0  0  0  0  0  0  0  0  0  0  0
    2.4000    1.3856    0.0000 N   0  0  0  0  0  0  0  0  0  0  0  0
    2.4000   -1.3856    0.0000 O   0  0  0  0  0  0  0  0  0  0  0  0
   -2.4000   -1.3856    0.0000 C   0  0  0  0  0  0  0  0  0  0  0  0
   -3.2000    0.0000    0.0000 C   0  0  0  0  0  0  0  0  0  0  0  0
   -0.8000    4.1569    0.0000 C   0  0  0  0  0  0  0  0  0  0  0  0
    4.0000    1.3856    0.0000 C   0  0  0  0  0  0  0  0  0  0  0  0
    0.0000    5.5426    0.0000 C   0  0  0  0  0  0  0  0  0  0  0  0
    4.8000    0.0000    0.0000 C   0  0  0  0  0  0  0  0  0  0  0  0
    4.8000    2.7713    0.0000 C   0  0  0  0  0  0  0  0  0  0  0  0
    6.4000    0.0000    0.0000 C   0  0  0  0  0  0  0  0  0  0  0  0
    4.0000   -1.3856    0.0000 C   0  0  0  0  0  0  0  0  0  0  0  0
    6.4000    2.7713    0.0000 C   0  0  0  0  0  0  0  0  0  0  0  0
    4.0000    4.1569    0.0000 C   0  0  0  0  0  0  0  0  0  0  0  0
    7.2000    1.3856    0.0000 C   0  0  0  0  0  0  0  0  0  0  0  0
  1  2  1  0  0  0  0
  1  3  1  6  0  0  0
  1  4  1  0  0  0  0
  2  5  1  0  0  0  0
  2  6  1  1  0  0  0
  3  7  1  0  0  0  0
  3  8  2  0  0  0  0
  4  9  1  0  0  0  0
  5 10  1  0  0  0  0
  6 11  1  0  0  0  0
  7 12  1  0  0  0  0
  9 10  1  0  0  0  0
 11 13  1  0  0  0  0
 12 14  2  0  0  0  0
 12 15  1  0  0  0  0
 14 16  1  0  0  0  0
 14 17  1  0  0  0  0
 15 18  2  0  0  0  0
 15 19  1  0  0  0  0
 16 20  2  0  0  0  0
 18 20  1  0  0  0  0
M  END
> <Acceptable>
false

> <IC50>
23.8

$$$$

Generated by Molecular Materials Informatics

 25 27  0  0  0  0  0  0  0  0999 V2000
   -1.4617    0.6508    0.0000 S   0  0  0  0  0  0  0  0  0  0  0  0
   -2.5323   -0.5383    0.0000 C   0  0  0  0  0  0  0  0  0  0  0  0
   -4.1235   -0.3710    0.0000 O   0  0  0  0  0  0  0  0  0  0  0  0
   -1.7323   -1.9239    0.0000 N   0  0  0  0  0  0  0  0  0  0  0  0
   -0.1672   -1.5912    0.0000 C   0  0  0  0  0  0  0  0  0  0  0  0
    1.0218   -2.6618    0.0000 O   0  0  0  0  0  0  0  0  0  0  0  0
    0.0000    0.0000    0.0000 C   0  0  0  0  0  0  0  0  0  0  0  0
    1.3856    0.8000    0.0000 C   0  0  0  0  0  0  0  0  0  0  0  0
    2.7713    0.0000    0.0000 C   0  0  0  0  0  0  0  0  0  0  0  0
    2.7713   -1.6000    0.0000 C   0  0  0  0  0  0  0  0  0  0  0  0
    4.1569   -2.4000    0.0000 C   0  0  0  0  0  0  0  0  0  0  0  0
    5.5426   -1.6000    0.0000 C   0  0  0  0  0  0  0  0  0  0  0  0
    6.9282   -2.4000    0.0000 O   0  0  0  0  0  0  0  0  0  0  0  0
    8.3138   -1.6000    0.0000 C   0  0  0  0  0  0  0  0  0  0  0  0
    9.6995   -2.4000    0.0000 C   0  0  0  0  0  0  0  0  0  0  0  0
   11.0851   -1.6000    0.0000 N   0  0  0  0  0  0  0  0  0  0  0  0
   11.0851    0.0000    0.0000 C   0  0  0  0  0  0  0  0  0  0  0  0
   12.4708   -2.4000    0.0000 C   0  0  0  0  0  0  0  0  0  0  0  0
   12.4708   -4.0000    0.0000 N   0  0  0  0  0  0  0  0  0  0  0  0
   13.8564   -4.8000    0.0000 C   0  0  0  0  0  0  0  0  0  0  0  0
   15.2420   -4.0000    0.0000 C   0  0  0  0  0  0  0  0  0  0  0  0
   15.2420   -2.4000    0.0000 C   0  0  0  0  0  0  0  0  0  0  0  0
   13.8564   -1.6000    0.0000 C   0  0  0  0  0  0  0  0  0  0  0  0
    5.5426    0.0000    0.0000 C   0  0  0  0  0  0  0  0  0  0  0  0
    4.1569    0.8000    0.0000 C   0  0  0  0  0  0  0  0  0  0  0  0
  1  2  1  0  0  0  0
  1  7  1  0  0  0  0
  2  3  2  0  0  0  0
  2  4  1  0  0  0  0
  4  5  1  0  0  0  0
  5  6  2  0  0  0  0
  5  7  1  0  0  0  0
  7  8  1  1  0  0  0
  8  9  1  0  0  0  0
  9 10  1  0  0  0  0
  9 25  2  0  0  0  0
 10 11  2  0  0  0  0
 11 12  1  0  0  0  0
 12 13  1  0  0  0  0
 12 24  2  0  0  0  0
 13 14  1  0  0  0  0
 14 15  1  0  0  0  0
 15 16  1  0  0  0  0
 16 17  1  0  0  0  0
 16 18  1  0  0  0  0
 18 19  1  0  0  0  0
 18 23  2  0  0  0  0
 19 20  2  0  0  0  0
 20 21  1  0  0  0  0
 21 22  2  0  0  0  0
 22 23  1  0  0  0  0
 24 25  1  0  0  0  0
M  END
> <Acceptable>
true

> <IC50>
N/A

$$$$

Generated by Molecular Materials Informatics

 58 60  0  0  0  0  0  0  0  0999 V2000
   -2.0831    6.6248    0.0000 O   0  0  0  0  0  0  0  0  0  0  0  0
   -2.4391    5.0649    0.0000 C   0  0  0  0  0  0  0  0  0  0  0  0
   -4.0391    5.0649    0.0000 O   0  0  0  0  0  0  0  0  0  0  0  0
   -5.4807    4.3707    0.0000 C   0  0  0  0  0  0  0  0  0  0  0  0
   -6.4783    5.6216    0.0000 C   0  0  0  0  0  0  0  0  0  0  0  0
   -5.8937    7.1110    0.0000 C   0  0  0  0  0  0  0  0  0  0  0  0
   -6.4783    3.1198    0.0000 C   0  0  0  0  0  0  0  0  0  0  0  0
   -7.2783    4.5054    0.0000 O   0  0  0  0  0  0  0  0  0  0  0  0
   -8.0604    2.8813    0.0000 C   0  0  0  0  0  0  0  0  0  0  0  0
   -6.8343    1.5599    0.0000 C   0  0  0  0  0  0  0  0  0  0  0  0
   -8.4343    1.5599    0.0000 O   0  0  0  0  0  0  0  0  0  0  0  0
   -6.4783    0.0000    0.0000 C   0  0  0  0  0  0  0  0  0  0  0  0
   -7.9198   -0.6942    0.0000 C   0  0  0  0  0  0  0  0  0  0  0  0
   -5.4807   -1.2509    0.0000 C   0  0  0  0  0  0  0  0  0  0  0  0
   -6.4783   -2.5019    0.0000 N   0  0  0  0  0  0  0  0  0  0  0  0
   -8.0604   -2.2634    0.0000 O   0  0  0  0  0  0  0  0  0  0  0  0
   -9.0580   -3.5143    0.0000 C   0  0  0  0  0  0  0  0  0  0  0  0
  -10.6401   -3.2759    0.0000 O   0  0  0  0  0  0  0  0  0  0  0  0
  -11.6377   -4.5268    0.0000 C   0  0  0  0  0  0  0  0  0  0  0  0
  -13.2198   -4.2883    0.0000 C   0  0  0  0  0  0  0  0  0  0  0  0
  -14.2174   -5.5393    0.0000 O   0  0  0  0  0  0  0  0  0  0  0  0
  -15.7995   -5.3008    0.0000 C   0  0  0  0  0  0  0  0  0  0  0  0
   -4.0391   -1.9451    0.0000 C   0  0  0  0  0  0  0  0  0  0  0  0
   -4.3952   -3.5050    0.0000 C   0  0  0  0  0  0  0  0  0  0  0  0
   -2.4391   -1.9451    0.0000 C   0  0  0  0  0  0  0  0  0  0  0  0
   -0.9976   -1.2509    0.0000 C   0  0  0  0  0  0  0  0  0  0  0  0
   -0.8780   -2.8465    0.0000 O   0  0  0  0  0  0  0  0  0  0  0  0
    0.5313   -1.7225    0.0000 C   0  0  0  0  0  0  0  0  0  0  0  0
    0.0000    0.0000    0.0000 C   0  0  0  0  0  0  0  0  0  0  0  0
    1.4416   -0.6942    0.0000 O   0  0  0  0  0  0  0  0  0  0  0  0
    1.5611   -2.2897    0.0000 C   0  0  0  0  0  0  0  0  0  0  0  0
    0.2391   -3.1911    0.0000 O   0  0  0  0  0  0  0  0  0  0  0  0
    0.3587   -4.7866    0.0000 C   0  0  0  0  0  0  0  0  0  0  0  0
   -0.9633   -5.6879    0.0000 C   0  0  0  0  0  0  0  0  0  0  0  0
    1.8003   -5.4808    0.0000 C   0  0  0  0  0  0  0  0  0  0  0  0
    3.1222   -4.5795    0.0000 C   0  0  0  0  0  0  0  0  0  0  0  0
    4.5638   -5.2737    0.0000 N   0  0  0  0  0  0  0  0  0  0  0  0
    5.8858   -4.3724    0.0000 C   0  0  0  0  0  0  0  0  0  0  0  0
    4.6834   -6.8692    0.0000 C   0  0  0  0  0  0  0  0  0  0  0  0
    3.0027   -2.9840    0.0000 C   0  0  0  0  0  0  0  0  0  0  0  0
    4.3247   -2.0826    0.0000 O   0  0  0  0  0  0  0  0  0  0  0  0
    0.3560    1.5599    0.0000 C   0  0  0  0  0  0  0  0  0  0  0  0
    1.9560    1.5599    0.0000 C   0  0  0  0  0  0  0  0  0  0  0  0
    0.0000    3.1198    0.0000 C   0  0  0  0  0  0  0  0  0  0  0  0
    1.4415    3.8140    0.0000 O   0  0  0  0  0  0  0  0  0  0  0  0
    2.0996    5.2724    0.0000 C   0  0  0  0  0  0  0  0  0  0  0  0
    1.1656    6.5715    0.0000 O   0  0  0  0  0  0  0  0  0  0  0  0
    1.8237    8.0299    0.0000 C   0  0  0  0  0  0  0  0  0  0  0  0
    0.8897    9.3290    0.0000 C   0  0  0  0  0  0  0  0  0  0  0  0
    3.4157    8.1892    0.0000 C   0  0  0  0  0  0  0  0  0  0  0  0
    4.0738    9.6476    0.0000 O   0  0  0  0  0  0  0  0  0  0  0  0
    4.3497    6.8901    0.0000 C   0  0  0  0  0  0  0  0  0  0  0  0
    5.4669    8.0355    0.0000 O   0  0  0  0  0  0  0  0  0  0  0  0
    7.0174    7.6407    0.0000 C   0  0  0  0  0  0  0  0  0  0  0  0
    5.6717    5.9888    0.0000 C   0  0  0  0  0  0  0  0  0  0  0  0
    3.6917    5.4317    0.0000 C   0  0  0  0  0  0  0  0  0  0  0  0
   -0.9976    4.3707    0.0000 C   0  0  0  0  0  0  0  0  0  0  0  0
    0.0000    5.6216    0.0000 C   0  0  0  0  0  0  0  0  0  0  0  0
  1  2  2  0  0  0  0
  2  3  1  0  0  0  0
  2 57  1  0  0  0  0
  3  4  1  0  0  0  0
  4  5  1  1  0  0  0
  4  7  1  0  0  0  0
  5  6  1  0  0  0  0
  7  8  1  0  0  0  0
  7  9  1  1  0  0  0
  7 10  1  0  0  0  0
 10 11  1  1  0  0  0
 10 12  1  0  0  0  0
 12 13  1  6  0  0  0
 12 14  1  0  0  0  0
 14 15  2  0  0  0  0
 14 23  1  0  0  0  0
 15 16  1  0  0  0  0
 16 17  1  0  0  0  0
 17 18  1  0  0  0  0
 18 19  1  0  0  0  0
 19 20  1  0  0  0  0
 20 21  1  0  0  0  0
 21 22  1  0  0  0  0
 23 24  1  1  0  0  0
 23 25  1  0  0  0  0
 25 26  1  0  0  0  0
 26 27  1  0  0  0  0
 26 28  1  1  0  0  0
 26 29  1  0  0  0  0
 29 30  1  1  0  0  0
 29 42  1  0  0  0  0
 31 30  1  1  0  0  0
 31 32  1  0  0  0  0
 31 40  1  0  0  0  0
 32 33  1  0  0  0  0
 33 34  1  1  0  0  0
 33 35  1  0  0  0  0
 35 36  1  0  0  0  0
 36 37  1  1  0  0  0
 36 40  1  0  0  0  0
 37 38  1  0  0  0  0
 37 39  1  0  0  0  0
 40 41  1  6  0  0  0
 42 43  1  6  0  0  0
 42 44  1  0  0  0  0
 44 45  1  1  0  0  0
 44 57  1  0  0  0  0
 46 45  1  6  0  0  0
 46 47  1  0  0  0  0
 46 56  1  0  0  0  0
 47 48  1  0  0  0  0
 48 49  1  1  0  0  0
 48 50  1  0  0  0  0
 50 51  1  6  0  0  0
 50 52  1  0  0  0  0
 52 53  1  0  0  0  0
 52 55  1  1  0  0  0
 52 56  1  0  0  0  0
 53 54  1  0  0  0  0
 57 58  1  6  0  0  0
M  END
> <Acceptable>
false

> <IC50>
36.5

$$$$

Generated by Molecular Materials Informatics

 49 53  0  0  0  0  0  0  0  0999 V2000
   -5.5847   -5.2812    0.0000 O   0  0  0  0  0  0  0  0  0  0  0  0
   -7.0882   -5.8285    0.0000 C   0  0  0  0  0  0  0  0  0  0  0  0
   -7.3660   -7.4042    0.0000 N   0  0  0  0  0  0  0  0  0  0  0  0
   -8.3138   -4.8000    0.0000 C   0  0  0  0  0  0  0  0  0  0  0  0
   -8.3138   -3.2000    0.0000 C   0  0  0  0  0  0  0  0  0  0  0  0
   -9.6995   -2.4000    0.0000 N   0  0  0  0  0  0  0  0  0  0  0  0
  -11.0851   -3.2000    0.0000 C   0  0  0  0  0  0  0  0  0  0  0  0
  -11.0851   -4.8000    0.0000 O   0  0  0  0  0  0  0  0  0  0  0  0
  -12.4708   -2.4000    0.0000 C   0  0  0  0  0  0  0  0  0  0  0  0
  -13.8564   -3.2000    0.0000 N   0  0  0  0  0  0  0  0  0  0  0  0
  -15.2420   -2.4000    0.0000 C   0  0  0  0  0  0  0  0  0  0  0  0
  -16.6277   -3.2000    0.0000 C   0  0  0  0  0  0  0  0  0  0  0  0
  -18.0133   -2.4000    0.0000 C   0  0  0  0  0  0  0  0  0  0  0  0
  -18.0133   -0.8000    0.0000 C   0  0  0  0  0  0  0  0  0  0  0  0
  -16.6277    0.0000    0.0000 C   0  0  0  0  0  0  0  0  0  0  0  0
  -15.2421   -0.8000    0.0000 C   0  0  0  0  0  0  0  0  0  0  0  0
  -13.8564    0.0000    0.0000 C   0  0  0  0  0  0  0  0  0  0  0  0
  -12.4708   -0.8000    0.0000 C   0  0  0  0  0  0  0  0  0  0  0  0
   -6.9282   -2.4000    0.0000 C   0  0  0  0  0  0  0  0  0  0  0  0
   -5.5426   -3.2000    0.0000 O   0  0  0  0  0  0  0  0  0  0  0  0
   -6.9282   -0.8000    0.0000 N   0  0  0  0  0  0  0  0  0  0  0  0
   -5.5426    0.0000    0.0000 C   0  0  0  0  0  0  0  0  0  0  0  0
   -5.5426    1.6000    0.0000 C   0  0  0  0  0  0  0  0  0  0  0  0
   -6.9282    2.4000    0.0000 C   0  0  0  0  0  0  0  0  0  0  0  0
   -6.9282    4.0000    0.0000 C   0  0  0  0  0  0  0  0  0  0  0  0
   -8.3138    4.8000    0.0000 C   0  0  0  0  0  0  0  0  0  0  0  0
   -9.6995    4.0000    0.0000 C   0  0  0  0  0  0  0  0  0  0  0  0
   -9.6995    2.4000    0.0000 C   0  0  0  0  0  0  0  0  0  0  0  0
   -8.3138    1.6000    0.0000 C   0  0  0  0  0  0  0  0  0  0  0  0
   -4.1569   -0.8000    0.0000 C   0  0  0  0  0  0  0  0  0  0  0  0
   -4.1569   -2.4000    0.0000 O   0  0  0  0  0  0  0  0  0  0  0  0
   -2.7713    0.0000    0.0000 C   0  0  0  0  0  0  0  0  0  0  0  0
   -1.3856   -0.8000    0.0000 N   0  0  0  0  0  0  0  0  0  0  0  0
   -1.3856   -2.4000    0.0000 C   0  0  0  0  0  0  0  0  0  0  0  0
    0.0000   -3.2000    0.0000 C   0  0  0  0  0  0  0  0  0  0  0  0
    0.0000   -4.8000    0.0000 C   0  0  0  0  0  0  0  0  0  0  0  0
    1.3856   -5.6000    0.0000 C   0  0  0  0  0  0  0  0  0  0  0  0
    2.7713   -4.8000    0.0000 C   0  0  0  0  0  0  0  0  0  0  0  0
    2.7713   -3.2000    0.0000 C   0  0  0  0  0  0  0  0  0  0  0  0
    1.3856   -2.4000    0.0000 C   0  0  0  0  0  0  0  0  0  0  0  0
    1.3856   -0.8000    0.0000 C   0  0  0  0  0  0  0  0  0  0  0  0
    0.0000    0.0000    0.0000 C   0  0  0  0  0  0  0  0  0  0  0  0
    0.0000    1.6000    0.0000 C   0  0  0  0  0  0  0  0  0  0  0  0
   -1.3856    2.4000    0.0000 O   0  0  0  0  0  0  0  0  0  0  0  0
    1.3856    2.4000    0.0000 N   0  0  0  0  0  0  0  0  0  0  0  0
    1.3856    4.0000    0.0000 C   0  0  0  0  0  0  0  0  0  0  0  0
    0.0000    4.8000    0.0000 C   0  0  0  0  0  0  0  0  0  0  0  0
    2.7713    4.8000    0.0000 C   0  0  0  0  0  0  0  0  0  0  0  0
    1.3856    5.6000    0.0000 C   0  0  0  0  0  0  0  0  0  0  0  0
  1  2  2  0  0  0  0
  2  3  1  0  0  0  0
  2  4  1  0  0  0  0
  4  5  1  0  0  0  0
  5  6  1  6  0  0  0
  5 19  1  0  0  0  0
  6  7  1  0  0  0  0
  7  8  2  0  0  0  0
  7  9  1  0  0  0  0
  9 10  1  0  0  0  0
  9 18  2  0  0  0  0
 10 11  2  0  0  0  0
 11 12  1  0  0  0  0
 11 16  1  0  0  0  0
 12 13  2  0  0  0  0
 13 14  1  0  0  0  0
 14 15  2  0  0  0  0
 15 16  1  0  0  0  0
 16 17  2  0  0  0  0
 17 18  1  0  0  0  0
 19 20  2  0  0  0  0
 19 21  1  0  0  0  0
 22 21  1  1  0  0  0
 22 23  1  0  0  0  0
 22 30  1  0  0  0  0
 23 24  1  0  0  0  0
 24 25  1  0  0  0  0
 24 29  2  0  0  0  0
 25 26  2  0  0  0  0
 26 27  1  0  0  0  0
 27 28  2  0  0  0  0
 28 29  1  0  0  0  0
 30 31  1  1  0  0  0
 30 32  1  0  0  0  0
 33 32  1  6  0  0  0
 33 34  1  0  0  0  0
 33 42  1  0  0  0  0
 35 34  1  6  0  0  0
 35 36  1  0  0  0  0
 35 40  1  0  0  0  0
 36 37  1  0  0  0  0
 37 38  1  0  0  0  0
 38 39  1  0  0  0  0
 39 40  1  0  0  0  0
 40 41  1  6  0  0  0
 41 42  1  0  0  0  0
 42 43  1  6  0  0  0
 43 44  2  0  0  0  0
 43 45  1  0  0  0  0
 45 46  1  0  0  0  0
 46 47  1  0  0  0  0
 46 48  1  0  0  0  0
 46 49  1  0  0  0  0
M  END
> <Acceptable>
false

> <IC50>
15.3

$$$$

Generated by Molecular Materials Informatics

 21 23  0  0  0  0  0  0  0  0999 V2000
   -2.7713    1.6000    0.0000 N   0  0  0  0  0  0  0  0  0  0  0  0
   -1.3856    2.4000    0.0000 C   0  0  0  0  0  0  0  0  0  0  0  0
   -2.7713    0.0000    0.0000 C   0  0  0  0  0  0  0  0  0  0  0  0
   -1.3856   -0.8000    0.0000 C   0  0  0  0  0  0  0  0  0  0  0  0
    1.1890   -1.0706    0.0000 N   0  0  0  0  0  0  0  0  0  0  0  0
    0.5383   -2.5323    0.0000 C   0  0  0  0  0  0  0  0  0  0  0  0
   -1.0530   -2.3650    0.0000 N   0  0  0  0  0  0  0  0  0  0  0  0
   -1.3856    4.0000    0.0000 N   0  0  0  0  0  0  0  0  0  0  0  0
   -4.1569   -0.8000    0.0000 C   0  0  0  0  0  0  0  0  0  0  0  0
   -5.5426    0.0000    0.0000 O   0  0  0  0  0  0  0  0  0  0  0  0
   -6.9282   -0.8000    0.0000 C   0  0  0  0  0  0  0  0  0  0  0  0
   -6.9282   -2.4000    0.0000 N   0  0  0  0  0  0  0  0  0  0  0  0
   -8.3138    0.0000    0.0000 O   0  0  0  0  0  0  0  0  0  0  0  0
    1.3383   -3.9179    0.0000 N   0  0  0  0  0  0  0  0  0  0  0  0
    0.0000    0.0000    0.0000 C   0  0  0  0  0  0  0  0  0  0  0  0
    0.0000    1.6000    0.0000 N   0  0  0  0  0  0  0  0  0  0  0  0
    1.5217    2.0944    0.0000 C   0  0  0  0  0  0  0  0  0  0  0  0
    2.4621    0.8000    0.0000 C   0  0  0  0  0  0  0  0  0  0  0  0
    1.5217   -0.4944    0.0000 C   0  0  0  0  0  0  0  0  0  0  0  0
    2.9073   -1.2944    0.0000 O   0  0  0  0  0  0  0  0  0  0  0  0
    1.6889   -2.0857    0.0000 O   0  0  0  0  0  0  0  0  0  0  0  0
  1  2  1  0  0  0  0
  1  3  1  0  0  0  0
  2  8  2  0  0  0  0
  2 16  1  0  0  0  0
  3  4  1  0  0  0  0
  3  9  1  6  0  0  0
  4  7  1  1  0  0  0
  4 15  1  0  0  0  0
  5  6  1  0  0  0  0
  5 15  1  0  0  0  0
  6  7  1  0  0  0  0
  6 14  2  0  0  0  0
  9 10  1  0  0  0  0
 10 11  1  0  0  0  0
 11 12  1  0  0  0  0
 11 13  2  0  0  0  0
 15 16  1  0  0  0  0
 15 19  1  6  0  0  0
 16 17  1  0  0  0  0
 17 18  1  0  0  0  0
 18 19  1  0  0  0  0
 19 20  1  0  0  0  0
 19 21  1  0  0  0  0
M  END
> <Acceptable>
false

> <IC50>
0.5

$$$$

Generated by Molecular Materials Informatics

 28 29  0  0  0  0  0  0  0  0999 V2000
    1.3856    0.8000    0.0000 O   0  0  0  0  0  0  0  0  0  0  0  0
    1.3856   -2.4000    0.0000 O   0  0  0  0  0  0  0  0  0  0  0  0
  -13.8564   -1.6000    0.0000 O   0  0  0  0  0  0  0  0  0  0  0  0
  -19.3990    4.8000    0.0000 O   0  5  0  0  0  0  0  0  0  0  0  0
  -20.7846    2.4000    0.0000 O   0  0  0  0  0  0  0  0  0  0  0  0
   -6.9282    0.8000    0.0000 N   0  0  0  0  0  0  0  0  0  0  0  0
  -12.4708    0.8000    0.0000 N   0  0  0  0  0  0  0  0  0  0  0  0
  -19.3990    3.2000    0.0000 N   0  3  0  0  0  0  0  0  0  0  0  0
   -8.3138    0.0000    0.0000 C   0  0  0  0  0  0  0  0  0  0  0  0
   -5.5426    0.0000    0.0000 C   0  0  0  0  0  0  0  0  0  0  0  0
   -9.6995    0.8000    0.0000 C   0  0  0  0  0  0  0  0  0  0  0  0
   -4.1569    0.8000    0.0000 C   0  0  0  0  0  0  0  0  0  0  0  0
  -11.0851    0.0000    0.0000 C   0  0  0  0  0  0  0  0  0  0  0  0
   -2.7713    0.0000    0.0000 C   0  0  0  0  0  0  0  0  0  0  0  0
   -1.3856    0.8000    0.0000 C   0  0  0  0  0  0  0  0  0  0  0  0
   -2.7713   -1.6000    0.0000 C   0  0  0  0  0  0  0  0  0  0  0  0
    0.0000    0.0000    0.0000 C   0  0  0  0  0  0  0  0  0  0  0  0
   -1.3856   -2.4000    0.0000 C   0  0  0  0  0  0  0  0  0  0  0  0
    0.0000   -1.6000    0.0000 C   0  0  0  0  0  0  0  0  0  0  0  0
  -13.8564    0.0000    0.0000 C   0  0  0  0  0  0  0  0  0  0  0  0
  -15.2420    0.8000    0.0000 C   0  0  0  0  0  0  0  0  0  0  0  0
  -16.6277    0.0000    0.0000 C   0  0  0  0  0  0  0  0  0  0  0  0
  -15.2420    2.4000    0.0000 C   0  0  0  0  0  0  0  0  0  0  0  0
  -18.0133    0.8000    0.0000 C   0  0  0  0  0  0  0  0  0  0  0  0
  -16.6277    3.2000    0.0000 C   0  0  0  0  0  0  0  0  0  0  0  0
  -18.0133    2.4000    0.0000 C   0  0  0  0  0  0  0  0  0  0  0  0
    1.3856    2.4000    0.0000 C   0  0  0  0  0  0  0  0  0  0  0  0
    1.3856   -4.0000    0.0000 C   0  0  0  0  0  0  0  0  0  0  0  0
  1 17  1  0  0  0  0
  1 27  1  0  0  0  0
  2 19  1  0  0  0  0
  2 28  1  0  0  0  0
  3 20  2  0  0  0  0
  4  8  1  0  0  0  0
  5  8  2  0  0  0  0
  6  9  1  0  0  0  0
  6 10  1  0  0  0  0
  7 13  1  0  0  0  0
  7 20  1  0  0  0  0
  8 26  1  0  0  0  0
  9 11  1  0  0  0  0
 10 12  1  0  0  0  0
 11 13  1  0  0  0  0
 12 14  1  0  0  0  0
 14 15  2  0  0  0  0
 14 16  1  0  0  0  0
 15 17  1  0  0  0  0
 16 18  2  0  0  0  0
 17 19  2  0  0  0  0
 18 19  1  0  0  0  0
 20 21  1  0  0  0  0
 21 22  2  0  0  0  0
 21 23  1  0  0  0  0
 22 24  1  0  0  0  0
 23 25  2  0  0  0  0
 24 26  2  0  0  0  0
 25 26  1  0  0  0  0
M  CHG  2   4  -1   8   1
M  END
> <Acceptable>
false

> <IC50>
12.3

$$$$

Generated by Molecular Materials Informatics

 14 14  0  0  0  0  0  0  0  0999 V2000
   -4.0000   -1.3856    0.0000 N   0  0  0  0  0  0  0  0  0  0  0  0
   -4.8000    0.0000    0.0000 C   0  0  0  0  0  0  0  0  0  0  0  0
   -4.8000   -2.7713    0.0000 C   0  0  0  0  0  0  0  0  0  0  0  0
   -6.4000   -2.7713    0.0000 C   0  0  0  0  0  0  0  0  0  0  0  0
   -8.0000   -2.7713    0.0000 C   0  0  0  0  0  0  0  0  0  0  0  0
   -2.4000   -1.3856    0.0000 C   0  0  0  0  0  0  0  0  0  0  0  0
   -1.6000   -2.7713    0.0000 C   0  0  0  0  0  0  0  0  0  0  0  0
   -1.6000    0.0000    0.0000 C   0  0  0  0  0  0  0  0  0  0  0  0
    0.0000    0.0000    0.0000 C   0  0  0  0  0  0  0  0  0  0  0  0
    0.8000   -1.3856    0.0000 C   0  0  0  0  0  0  0  0  0  0  0  0
    2.4000   -1.3856    0.0000 C   0  0  0  0  0  0  0  0  0  0  0  0
    3.2000    0.0000    0.0000 C   0  0  0  0  0  0  0  0  0  0  0  0
    2.4000    1.3856    0.0000 C   0  0  0  0  0  0  0  0  0  0  0  0
    0.8000    1.3856    0.0000 C   0  0  0  0  0  0  0  0  0  0  0  0
  1  2  1  1  0  0  0
  1  3  1  0  0  0  0
  1  6  1  0  0  0  0
  3  4  1  0  0  0  0
  4  5  3  0  0  0  0
  6  7  1  1  0  0  0
  6  8  1  0  0  0  0
  8  9  1  0  0  0  0
  9 10  1  0  0  0  0
  9 14  2  0  0  0  0
 10 11  2  0  0  0  0
 11 12  1  0  0  0  0
 12 13  2  0  0  0  0
 13 14  1  0  0  0  0
M  END
> <Acceptable>
true

> <IC50>
N/A

$$$$

Generated by Molecular Materials Informatics

 21 21  0  0  0  0  0  0  0  0999 V2000
    5.5426    1.6000    0.0000 S   0  0  0  0  0  0  0  0  0  0  0  0
    4.7426    0.2144    0.0000 O   0  0  0  0  0  0  0  0  0  0  0  0
    6.3426    2.9856    0.0000 O   0  0  0  0  0  0  0  0  0  0  0  0
    4.1569    2.4000    0.0000 N   0  0  0  0  0  0  0  0  0  0  0  0
    2.7713    1.6000    0.0000 C   0  0  0  0  0  0  0  0  0  0  0  0
    1.3856    2.4000    0.0000 C   0  0  0  0  0  0  0  0  0  0  0  0
    0.0000    1.6000    0.0000 C   0  0  0  0  0  0  0  0  0  0  0  0
    0.0000    0.0000    0.0000 C   0  0  0  0  0  0  0  0  0  0  0  0
    1.3856   -0.8000    0.0000 C   0  0  0  0  0  0  0  0  0  0  0  0
    2.7713    0.0000    0.0000 C   0  0  0  0  0  0  0  0  0  0  0  0
   -1.3856   -0.8000    0.0000 C   0  0  0  0  0  0  0  0  0  0  0  0
   -1.3856   -2.4000    0.0000 O   0  0  0  0  0  0  0  0  0  0  0  0
   -2.7713    0.0000    0.0000 N   0  0  0  0  0  0  0  0  0  0  0  0
   -4.1569   -0.8000    0.0000 C   0  0  0  0  0  0  0  0  0  0  0  0
   -5.5426    0.0000    0.0000 C   0  0  0  0  0  0  0  0  0  0  0  0
   -6.9282   -0.8000    0.0000 N   0  0  0  0  0  0  0  0  0  0  0  0
   -6.9282   -2.4000    0.0000 C   0  0  0  0  0  0  0  0  0  0  0  0
   -8.3138   -3.2000    0.0000 C   0  0  0  0  0  0  0  0  0  0  0  0
   -8.3138    0.0000    0.0000 C   0  0  0  0  0  0  0  0  0  0  0  0
   -9.6995   -0.8000    0.0000 C   0  0  0  0  0  0  0  0  0  0  0  0
    6.9282    0.8000    0.0000 C   0  0  0  0  0  0  0  0  0  0  0  0
  1  2  2  0  0  0  0
  1  3  2  0  0  0  0
  1  4  1  0  0  0  0
  1 21  1  0  0  0  0
  4  5  1  0  0  0  0
  5  6  1  0  0  0  0
  5 10  2  0  0  0  0
  6  7  2  0  0  0  0
  7  8  1  0  0  0  0
  8  9  2  0  0  0  0
  8 11  1  0  0  0  0
  9 10  1  0  0  0  0
 11 12  2  0  0  0  0
 11 13  1  0  0  0  0
 13 14  1  0  0  0  0
 14 15  1  0  0  0  0
 15 16  1  0  0  0  0
 16 17  1  0  0  0  0
 16 19  1  0  0  0  0
 17 18  1  0  0  0  0
 19 20  1  0  0  0  0
M  END
> <Acceptable>
true

> <IC50>
50

$$$$

Generated by Molecular Materials Informatics

 31 35  0  0  0  0  0  0  0  0999 V2000
    1.3856    4.0000    0.0000 Cl  0  0  0  0  0  0  0  0  0  0  0  0
    1.3856    2.4000    0.0000 C   0  0  0  0  0  0  0  0  0  0  0  0
    2.7713    1.6000    0.0000 C   0  0  0  0  0  0  0  0  0  0  0  0
    2.7713    0.0000    0.0000 C   0  0  0  0  0  0  0  0  0  0  0  0
    1.3856   -0.8000    0.0000 C   0  0  0  0  0  0  0  0  0  0  0  0
    1.0530   -2.3650    0.0000 N   0  0  0  0  0  0  0  0  0  0  0  0
   -0.5383   -2.5323    0.0000 C   0  0  0  0  0  0  0  0  0  0  0  0
   -1.1890   -1.0706    0.0000 C   0  0  0  0  0  0  0  0  0  0  0  0
    0.0000    0.0000    0.0000 C   0  0  0  0  0  0  0  0  0  0  0  0
    0.0000    1.6000    0.0000 C   0  0  0  0  0  0  0  0  0  0  0  0
   -2.7541   -0.7379    0.0000 C   0  0  0  0  0  0  0  0  0  0  0  0
   -3.8247   -1.9270    0.0000 C   0  0  0  0  0  0  0  0  0  0  0  0
   -5.3897   -1.5943    0.0000 C   0  0  0  0  0  0  0  0  0  0  0  0
   -5.8841   -0.0726    0.0000 N   0  0  0  0  0  0  0  0  0  0  0  0
   -4.8135    1.1164    0.0000 C   0  0  0  0  0  0  0  0  0  0  0  0
   -3.2485    0.7837    0.0000 C   0  0  0  0  0  0  0  0  0  0  0  0
   -7.4492    0.2600    0.0000 C   0  0  0  0  0  0  0  0  0  0  0  0
   -8.5198   -0.9290    0.0000 C   0  0  0  0  0  0  0  0  0  0  0  0
  -10.0848   -0.5963    0.0000 N   0  0  0  0  0  0  0  0  0  0  0  0
  -11.2739   -1.6670    0.0000 C   0  0  0  0  0  0  0  0  0  0  0  0
  -12.6595   -0.8670    0.0000 C   0  0  0  0  0  0  0  0  0  0  0  0
  -12.3268    0.6981    0.0000 N   0  0  0  0  0  0  0  0  0  0  0  0
  -10.7356    0.8653    0.0000 C   0  0  0  0  0  0  0  0  0  0  0  0
   -9.9356    2.2510    0.0000 O   0  0  0  0  0  0  0  0  0  0  0  0
    2.1236   -3.5541    0.0000 C   0  0  0  0  0  0  0  0  0  0  0  0
    3.6886   -3.2214    0.0000 C   0  0  0  0  0  0  0  0  0  0  0  0
    4.7592   -4.4104    0.0000 C   0  0  0  0  0  0  0  0  0  0  0  0
    4.2648   -5.9321    0.0000 C   0  0  0  0  0  0  0  0  0  0  0  0
    5.3354   -7.1212    0.0000 F   0  0  0  0  0  0  0  0  0  0  0  0
    2.6998   -6.2648    0.0000 C   0  0  0  0  0  0  0  0  0  0  0  0
    1.6292   -5.0758    0.0000 C   0  0  0  0  0  0  0  0  0  0  0  0
  1  2  1  0  0  0  0
  2  3  1  0  0  0  0
  2 10  2  0  0  0  0
  3  4  2  0  0  0  0
  4  5  1  0  0  0  0
  5  6  1  0  0  0  0
  5  9  2  0  0  0  0
  6  7  1  0  0  0  0
  6 25  1  0  0  0  0
  7  8  2  0  0  0  0
  8  9  1  0  0  0  0
 11  8  1  6  0  0  0
  9 10  1  0  0  0  0
 11 12  1  0  0  0  0
 11 16  1  0  0  0  0
 12 13  1  0  0  0  0
 13 14  1  0  0  0  0
 14 15  1  0  0  0  0
 14 17  1  1  0  0  0
 15 16  1  0  0  0  0
 17 18  1  0  0  0  0
 18 19  1  0  0  0  0
 19 20  1  0  0  0  0
 19 23  1  0  0  0  0
 20 21  1  0  0  0  0
 21 22  1  0  0  0  0
 22 23  1  0  0  0  0
 23 24  2  0  0  0  0
 25 26  1  0  0  0  0
 25 31  2  0  0  0  0
 26 27  2  0  0  0  0
 27 28  1  0  0  0  0
 28 29  1  0  0  0  0
 28 30  2  0  0  0  0
 30 31  1  0  0  0  0
M  END
> <Acceptable>
false

> <IC50>
0.0126

$$$$

Generated by Molecular Materials Informatics

 20 22  0  0  0  0  0  0  0  0999 V2000
   -7.2000   -1.3856    0.0000 Cl  0  0  0  0  0  0  0  0  0  0  0  0
   -5.6000   -1.3856    0.0000 C   0  0  0  0  0  0  0  0  0  0  0  0
   -4.8000   -2.7713    0.0000 C   0  0  0  0  0  0  0  0  0  0  0  0
   -3.2000   -2.7713    0.0000 C   0  0  0  0  0  0  0  0  0  0  0  0
   -2.4000   -1.3856    0.0000 C   0  0  0  0  0  0  0  0  0  0  0  0
   -3.2000    0.0000    0.0000 C   0  0  0  0  0  0  0  0  0  0  0  0
   -4.8000    0.0000    0.0000 C   0  0  0  0  0  0  0  0  0  0  0  0
   -5.6000    1.3856    0.0000 Cl  0  0  0  0  0  0  0  0  0  0  0  0
   -0.8000   -1.3856    0.0000 C   0  0  0  0  0  0  0  0  0  0  0  0
    0.0000   -2.7713    0.0000 C   0  0  0  0  0  0  0  0  0  0  0  0
    1.6000   -2.7713    0.0000 C   0  0  0  0  0  0  0  0  0  0  0  0
    2.4000   -1.3856    0.0000 C   0  0  0  0  0  0  0  0  0  0  0  0
    4.0000   -1.3856    0.0000 N   0  0  0  0  0  0  0  0  0  0  0  0
    4.8000   -2.7713    0.0000 C   0  0  0  0  0  0  0  0  0  0  0  0
    1.6000    0.0000    0.0000 C   0  0  0  0  0  0  0  0  0  0  0  0
    2.4000    1.3856    0.0000 C   0  0  0  0  0  0  0  0  0  0  0  0
    1.6000    2.7713    0.0000 C   0  0  0  0  0  0  0  0  0  0  0  0
    0.0000    2.7713    0.0000 C   0  0  0  0  0  0  0  0  0  0  0  0
   -0.8000    1.3856    0.0000 C   0  0  0  0  0  0  0  0  0  0  0  0
    0.0000    0.0000    0.0000 C   0  0  0  0  0  0  0  0  0  0  0  0
  1  2  1  0  0  0  0
  2  3  1  0  0  0  0
  2  7  2  0  0  0  0
  3  4  2  0  0  0  0
  4  5  1  0  0  0  0
  5  6  2  0  0  0  0
  9  5  1  1  0  0  0
  6  7  1  0  0  0  0
  7  8  1  0  0  0  0
  9 10  1  0  0  0  0
  9 20  1  0  0  0  0
 10 11  1  0  0  0  0
 11 12  1  0  0  0  0
 12 13  1  1  0  0  0
 12 15  1  0  0  0  0
 13 14  1  0  0  0  0
 15 16  1  0  0  0  0
 15 20  2  0  0  0  0
 16 17  2  0  0  0  0
 17 18  1  0  0  0  0
 18 19  2  0  0  0  0
 19 20  1  0  0  0  0
M  END
> <Acceptable>
false

> <IC50>
7.9

$$$$

Generated by Molecular Materials Informatics

 19 20  0  0  0  0  0  0  0  0999 V2000
   -6.4000    0.0000    0.0000 Cl  0  0  0  0  0  0  0  0  0  0  0  0
   -4.8000    0.0000    0.0000 C   0  0  0  0  0  0  0  0  0  0  0  0
   -4.0000   -1.3856    0.0000 C   0  0  0  0  0  0  0  0  0  0  0  0
   -2.4000   -1.3856    0.0000 C   0  0  0  0  0  0  0  0  0  0  0  0
   -1.6000    0.0000    0.0000 C   0  0  0  0  0  0  0  0  0  0  0  0
   -2.4000    1.3856    0.0000 C   0  0  0  0  0  0  0  0  0  0  0  0
   -4.0000    1.3856    0.0000 C   0  0  0  0  0  0  0  0  0  0  0  0
    0.0000    0.0000    0.0000 C   0  0  0  0  0  0  0  0  0  0  0  0
    0.0000   -1.6000    0.0000 C   0  0  0  0  0  0  0  0  0  0  0  0
    1.6000   -1.6000    0.0000 C   0  0  0  0  0  0  0  0  0  0  0  0
    1.6000    0.0000    0.0000 C   0  0  0  0  0  0  0  0  0  0  0  0
    0.0000    1.6000    0.0000 C   0  0  0  0  0  0  0  0  0  0  0  0
    1.3856    2.4000    0.0000 N   0  0  0  0  0  0  0  0  0  0  0  0
    2.7713    1.6000    0.0000 C   0  0  0  0  0  0  0  0  0  0  0  0
    1.3856    4.0000    0.0000 C   0  0  0  0  0  0  0  0  0  0  0  0
   -1.3856    2.4000    0.0000 C   0  0  0  0  0  0  0  0  0  0  0  0
   -1.3856    4.0000    0.0000 C   0  0  0  0  0  0  0  0  0  0  0  0
    0.0000    4.8000    0.0000 C   0  0  0  0  0  0  0  0  0  0  0  0
   -2.7713    4.8000    0.0000 C   0  0  0  0  0  0  0  0  0  0  0  0
  1  2  1  0  0  0  0
  2  3  1  0  0  0  0
  2  7  2  0  0  0  0
  3  4  2  0  0  0  0
  4  5  1  0  0  0  0
  5  6  2  0  0  0  0
  5  8  1  0  0  0  0
  6  7  1  0  0  0  0
  8  9  1  0  0  0  0
  8 11  1  0  0  0  0
  8 12  1  0  0  0  0
  9 10  1  0  0  0  0
 10 11  1  0  0  0  0
 12 13  1  1  0  0  0
 12 16  1  0  0  0  0
 13 14  1  0  0  0  0
 13 15  1  0  0  0  0
 16 17  1  0  0  0  0
 17 18  1  0  0  0  0
 17 19  1  0  0  0  0
M  END
> <Acceptable>
false

> <IC50>
15.8

$$$$

Generated by Molecular Materials Informatics

 33 36  0  0  0  0  0  0  0  0999 V2000
    0.0000    0.0000    0.0000 S   0  0  0  0  0  0  0  0  0  0  0  0
    0.8000   -1.3856    0.0000 O   0  0  0  0  0  0  0  0  0  0  0  0
   -0.8000    1.3856    0.0000 O   0  0  0  0  0  0  0  0  0  0  0  0
   -1.3856   -0.8000    0.0000 N   0  0  0  0  0  0  0  0  0  0  0  0
   -1.3856   -2.4000    0.0000 C   0  0  0  0  0  0  0  0  0  0  0  0
   -2.7713   -3.2000    0.0000 C   0  0  0  0  0  0  0  0  0  0  0  0
   -4.1569   -2.4000    0.0000 N   0  0  0  0  0  0  0  0  0  0  0  0
   -5.5426   -3.2000    0.0000 C   0  0  0  0  0  0  0  0  0  0  0  0
   -4.1569   -0.8000    0.0000 C   0  0  0  0  0  0  0  0  0  0  0  0
   -2.7713    0.0000    0.0000 C   0  0  0  0  0  0  0  0  0  0  0  0
    1.3856    0.8000    0.0000 C   0  0  0  0  0  0  0  0  0  0  0  0
    1.3856    2.4000    0.0000 C   0  0  0  0  0  0  0  0  0  0  0  0
    2.7713    3.2000    0.0000 C   0  0  0  0  0  0  0  0  0  0  0  0
    4.1569    2.4000    0.0000 C   0  0  0  0  0  0  0  0  0  0  0  0
    5.5426    3.2000    0.0000 O   0  0  0  0  0  0  0  0  0  0  0  0
    5.5426    4.8000    0.0000 C   0  0  0  0  0  0  0  0  0  0  0  0
    6.9282    5.6000    0.0000 C   0  0  0  0  0  0  0  0  0  0  0  0
    4.1569    0.8000    0.0000 C   0  0  0  0  0  0  0  0  0  0  0  0
    2.7713    0.0000    0.0000 C   0  0  0  0  0  0  0  0  0  0  0  0
    5.5426    0.0000    0.0000 C   0  0  0  0  0  0  0  0  0  0  0  0
    6.9282    0.8000    0.0000 N   0  0  0  0  0  0  0  0  0  0  0  0
    8.3138    0.0000    0.0000 C   0  0  0  0  0  0  0  0  0  0  0  0
    8.3138   -1.6000    0.0000 C   0  0  0  0  0  0  0  0  0  0  0  0
    9.8355   -2.0944    0.0000 N   0  3  0  0  0  0  0  0  0  0  0  0
   10.7760   -0.8000    0.0000 N   0  0  0  0  0  0  0  0  0  0  0  0
    9.8355    0.4944    0.0000 C   0  0  0  0  0  0  0  0  0  0  0  0
   10.3300    2.0161    0.0000 C   0  0  0  0  0  0  0  0  0  0  0  0
   11.8950    2.3488    0.0000 C   0  0  0  0  0  0  0  0  0  0  0  0
   12.3894    3.8705    0.0000 C   0  0  0  0  0  0  0  0  0  0  0  0
   10.3300   -3.6161    0.0000 C   0  0  0  0  0  0  0  0  0  0  0  0
    6.9282   -2.4000    0.0000 C   0  0  0  0  0  0  0  0  0  0  0  0
    6.9282   -4.0000    0.0000 O   0  0  0  0  0  0  0  0  0  0  0  0
    5.5426   -1.6000    0.0000 N   0  0  0  0  0  0  0  0  0  0  0  0
  1  2  2  0  0  0  0
  1  3  2  0  0  0  0
  4  1  1  1  0  0  0
  1 11  1  0  0  0  0
  4  5  1  0  0  0  0
  4 10  1  0  0  0  0
  5  6  1  0  0  0  0
  6  7  1  0  0  0  0
  7  8  1  6  0  0  0
  7  9  1  0  0  0  0
  9 10  1  0  0  0  0
 11 12  1  0  0  0  0
 11 19  2  0  0  0  0
 12 13  2  0  0  0  0
 13 14  1  0  0  0  0
 14 15  1  0  0  0  0
 14 18  2  0  0  0  0
 15 16  1  0  0  0  0
 16 17  1  0  0  0  0
 18 19  1  0  0  0  0
 18 20  1  0  0  0  0
 20 21  1  0  0  0  0
 20 33  2  0  0  0  0
 21 22  2  0  0  0  0
 22 23  1  0  0  0  0
 22 26  1  0  0  0  0
 23 24  2  0  0  0  0
 23 31  1  0  0  0  0
 24 25  1  0  0  0  0
 24 30  1  0  0  0  0
 25 26  2  0  0  0  0
 26 27  1  0  0  0  0
 27 28  1  0  0  0  0
 28 29  1  0  0  0  0
 31 32  2  0  0  0  0
 31 33  1  0  0  0  0
M  CHG  1  24   1
M  END
> <Acceptable>
true

> <IC50>
100

$$$$

Generated by Molecular Materials Informatics

 35 37  0  0  0  0  0  0  0  0999 V2000
   10.4000   -1.3856    0.0000 F   0  0  0  0  0  0  0  0  0  0  0  0
   11.2000   -2.7713    0.0000 F   0  0  0  0  0  0  0  0  0  0  0  0
   12.8000   -2.7713    0.0000 F   0  0  0  0  0  0  0  0  0  0  0  0
   -6.9865   -0.8197    0.0000 O   0  0  0  0  0  0  0  0  0  0  0  0
   -1.6000   -2.7713    0.0000 O   0  0  0  0  0  0  0  0  0  0  0  0
   10.4000    4.1569    0.0000 O   0  0  0  0  0  0  0  0  0  0  0  0
   12.0000    1.3856    0.0000 O   0  0  0  0  0  0  0  0  0  0  0  0
   -1.5650    0.3327    0.0000 N   0  0  0  0  0  0  0  0  0  0  0  0
    7.2000    1.3856    0.0000 N   0  0  0  0  0  0  0  0  0  0  0  0
    0.8000   -4.1569    0.0000 N   0  0  0  0  0  0  0  0  0  0  0  0
    0.0000    0.0000    0.0000 C   0  0  0  0  0  0  0  0  0  0  0  0
   -1.7323    1.9239    0.0000 C   0  0  0  0  0  0  0  0  0  0  0  0
    0.8000    1.3856    0.0000 C   0  0  0  0  0  0  0  0  0  0  0  0
   -0.2706    2.5747    0.0000 C   0  0  0  0  0  0  0  0  0  0  0  0
   -2.7541   -0.7380    0.0000 C   0  0  0  0  0  0  0  0  0  0  0  0
    3.2000    0.0000    0.0000 C   0  0  0  0  0  0  0  0  0  0  0  0
    0.8000   -1.3856    0.0000 C   0  0  0  0  0  0  0  0  0  0  0  0
    2.4000    1.3856    0.0000 C   0  0  0  0  0  0  0  0  0  0  0  0
    4.8000    0.0000    0.0000 C   0  0  0  0  0  0  0  0  0  0  0  0
    2.4000   -1.3856    0.0000 C   0  0  0  0  0  0  0  0  0  0  0  0
    5.6000    1.3856    0.0000 C   0  0  0  0  0  0  0  0  0  0  0  0
   -4.2758   -0.2435    0.0000 C   0  0  0  0  0  0  0  0  0  0  0  0
    0.0000   -2.7713    0.0000 C   0  0  0  0  0  0  0  0  0  0  0  0
    4.8000    2.7713    0.0000 C   0  0  0  0  0  0  0  0  0  0  0  0
   -5.4648   -1.3141    0.0000 C   0  0  0  0  0  0  0  0  0  0  0  0
    8.0000    2.7713    0.0000 C   0  0  0  0  0  0  0  0  0  0  0  0
    9.6000    2.7713    0.0000 C   0  0  0  0  0  0  0  0  0  0  0  0
   12.0000    4.1569    0.0000 C   0  0  0  0  0  0  0  0  0  0  0  0
   12.8000    2.7713    0.0000 C   0  0  0  0  0  0  0  0  0  0  0  0
   12.8000    5.5426    0.0000 C   0  0  0  0  0  0  0  0  0  0  0  0
   14.4000    2.7713    0.0000 C   0  0  0  0  0  0  0  0  0  0  0  0
   14.4000    5.5426    0.0000 C   0  0  0  0  0  0  0  0  0  0  0  0
   15.2000    4.1569    0.0000 C   0  0  0  0  0  0  0  0  0  0  0  0
   12.8000    0.0000    0.0000 C   0  0  0  0  0  0  0  0  0  0  0  0
   12.0000   -1.3856    0.0000 C   0  0  0  0  0  0  0  0  0  0  0  0
  1 35  1  0  0  0  0
  2 35  1  0  0  0  0
  3 35  1  0  0  0  0
  4 25  1  0  0  0  0
  5 23  2  0  0  0  0
  6 27  1  0  0  0  0
  6 28  1  0  0  0  0
  7 29  1  0  0  0  0
  7 34  1  0  0  0  0
  8 11  1  0  0  0  0
  8 12  1  0  0  0  0
  8 15  1  0  0  0  0
  9 21  1  0  0  0  0
  9 26  1  0  0  0  0
 10 23  1  0  0  0  0
 11 13  2  0  0  0  0
 11 17  1  0  0  0  0
 12 14  1  0  0  0  0
 13 14  1  0  0  0  0
 13 18  1  0  0  0  0
 15 22  1  0  0  0  0
 16 18  2  0  0  0  0
 16 19  1  0  0  0  0
 16 20  1  0  0  0  0
 17 20  2  0  0  0  0
 17 23  1  0  0  0  0
 19 21  1  0  0  0  0
 21 24  1  1  0  0  0
 22 25  1  0  0  0  0
 26 27  1  0  0  0  0
 28 29  2  0  0  0  0
 28 30  1  0  0  0  0
 29 31  1  0  0  0  0
 30 32  2  0  0  0  0
 31 33  2  0  0  0  0
 32 33  1  0  0  0  0
 34 35  1  0  0  0  0
M  END
> <Acceptable>
false

> <IC50>
8.91

$$$$

Generated by Molecular Materials Informatics

 30 32  0  0  0  0  0  0  0  0999 V2000
   -8.0000    5.5426    0.0000 O   0  0  0  0  0  0  0  0  0  0  0  0
   -7.2000    4.1569    0.0000 C   0  0  0  0  0  0  0  0  0  0  0  0
   -5.6000    4.1569    0.0000 O   0  0  0  0  0  0  0  0  0  0  0  0
   -4.8000    2.7713    0.0000 C   0  0  0  0  0  0  0  0  0  0  0  0
   -5.6000    1.3856    0.0000 C   0  0  0  0  0  0  0  0  0  0  0  0
   -7.2000    1.3856    0.0000 C   0  0  0  0  0  0  0  0  0  0  0  0
   -8.0000    0.0000    0.0000 O   0  0  0  0  0  0  0  0  0  0  0  0
   -8.0000    2.7713    0.0000 C   0  0  0  0  0  0  0  0  0  0  0  0
   -3.2000    2.7713    0.0000 C   0  0  0  0  0  0  0  0  0  0  0  0
   -2.4000    1.3856    0.0000 C   0  0  0  0  0  0  0  0  0  0  0  0
   -0.8000    1.3856    0.0000 C   0  0  0  0  0  0  0  0  0  0  0  0
    0.0000    2.7713    0.0000 C   0  0  0  0  0  0  0  0  0  0  0  0
   -0.8000    4.1569    0.0000 C   0  0  0  0  0  0  0  0  0  0  0  0
    1.6000    2.7713    0.0000 C   0  0  0  0  0  0  0  0  0  0  0  0
    2.4000    1.3856    0.0000 C   0  0  0  0  0  0  0  0  0  0  0  0
    1.6000    0.0000    0.0000 C   0  0  0  0  0  0  0  0  0  0  0  0
    2.4000   -1.3856    0.0000 C   0  0  0  0  0  0  0  0  0  0  0  0
    1.6000   -2.7713    0.0000 C   0  0  0  0  0  0  0  0  0  0  0  0
    2.4000   -4.1569    0.0000 C   0  0  0  0  0  0  0  0  0  0  0  0
    0.0000   -2.7713    0.0000 C   0  0  0  0  0  0  0  0  0  0  0  0
   -0.8000   -1.3856    0.0000 C   0  0  0  0  0  0  0  0  0  0  0  0
   -2.4000   -1.3856    0.0000 O   0  0  0  0  0  0  0  0  0  0  0  0
   -3.2000   -2.7713    0.0000 C   0  0  0  0  0  0  0  0  0  0  0  0
   -2.4000   -4.1569    0.0000 O   0  0  0  0  0  0  0  0  0  0  0  0
   -4.8000   -2.7713    0.0000 C   0  0  0  0  0  0  0  0  0  0  0  0
   -5.0088   -1.1850    0.0000 C   0  0  0  0  0  0  0  0  0  0  0  0
   -6.0694   -1.7973    0.0000 C   0  0  0  0  0  0  0  0  0  0  0  0
   -5.6000   -4.1569    0.0000 C   0  0  0  0  0  0  0  0  0  0  0  0
   -7.2000   -4.1569    0.0000 C   0  0  0  0  0  0  0  0  0  0  0  0
    0.0000    0.0000    0.0000 C   0  0  0  0  0  0  0  0  0  0  0  0
  1  2  2  0  0  0  0
  2  3  1  0  0  0  0
  2  8  1  0  0  0  0
  3  4  1  0  0  0  0
  4  5  1  0  0  0  0
  4  9  1  6  0  0  0
  5  6  1  0  0  0  0
  6  7  1  1  0  0  0
  6  8  1  0  0  0  0
  9 10  1  0  0  0  0
 11 10  1  1  0  0  0
 11 12  1  0  0  0  0
 11 30  1  0  0  0  0
 12 13  1  1  0  0  0
 12 14  1  0  0  0  0
 14 15  2  0  0  0  0
 15 16  1  0  0  0  0
 16 17  2  0  0  0  0
 30 16  1  6  0  0  0
 17 18  1  0  0  0  0
 18 19  1  6  0  0  0
 18 20  1  0  0  0  0
 20 21  1  0  0  0  0
 21 22  1  6  0  0  0
 21 30  1  0  0  0  0
 22 23  1  0  0  0  0
 23 24  2  0  0  0  0
 23 25  1  0  0  0  0
 25 26  1  0  0  0  0
 25 27  1  0  0  0  0
 25 28  1  0  0  0  0
 28 29  1  0  0  0  0
M  END
> <Acceptable>
true

> <IC50>
N/A

$$$$

Generated by Molecular Materials Informatics

 28 30  0  0  0  0  0  0  0  0999 V2000
   -2.4214   -2.3030    0.0000 F   0  0  0  0  0  0  0  0  0  0  0  0
   -4.2758   -0.2435    0.0000 F   0  0  0  0  0  0  0  0  0  0  0  0
   -3.9431   -1.8086    0.0000 F   0  0  0  0  0  0  0  0  0  0  0  0
    9.6000    0.0000    0.0000 F   0  0  0  0  0  0  0  0  0  0  0  0
   12.8000   -5.5426    0.0000 F   0  0  0  0  0  0  0  0  0  0  0  0
   14.4000   -2.7713    0.0000 F   0  0  0  0  0  0  0  0  0  0  0  0
    5.6000    1.3856    0.0000 O   0  0  0  0  0  0  0  0  0  0  0  0
    3.2000    0.0000    0.0000 N   0  0  0  0  0  0  0  0  0  0  0  0
    0.0000    0.0000    0.0000 N   0  0  0  0  0  0  0  0  0  0  0  0
   -0.2706    2.5747    0.0000 N   0  0  0  0  0  0  0  0  0  0  0  0
    8.0000    0.0000    0.0000 N   0  0  0  0  0  0  0  0  0  0  0  0
   -1.7323    1.9239    0.0000 N   0  0  0  0  0  0  0  0  0  0  0  0
    2.4000   -1.3856    0.0000 C   0  0  0  0  0  0  0  0  0  0  0  0
    0.8000   -1.3856    0.0000 C   0  0  0  0  0  0  0  0  0  0  0  0
    2.4000    1.3856    0.0000 C   0  0  0  0  0  0  0  0  0  0  0  0
    0.8000    1.3856    0.0000 C   0  0  0  0  0  0  0  0  0  0  0  0
    5.6000   -1.3856    0.0000 C   0  0  0  0  0  0  0  0  0  0  0  0
    7.2000   -1.3856    0.0000 C   0  0  0  0  0  0  0  0  0  0  0  0
    4.8000    0.0000    0.0000 C   0  0  0  0  0  0  0  0  0  0  0  0
    8.0000   -2.7713    0.0000 C   0  0  0  0  0  0  0  0  0  0  0  0
   -1.5650    0.3327    0.0000 C   0  0  0  0  0  0  0  0  0  0  0  0
    9.6000   -2.7713    0.0000 C   0  0  0  0  0  0  0  0  0  0  0  0
   -2.7541   -0.7380    0.0000 C   0  0  0  0  0  0  0  0  0  0  0  0
   10.4000   -1.3856    0.0000 C   0  0  0  0  0  0  0  0  0  0  0  0
   10.4000   -4.1569    0.0000 C   0  0  0  0  0  0  0  0  0  0  0  0
   12.0000   -4.1569    0.0000 C   0  0  0  0  0  0  0  0  0  0  0  0
   12.0000   -1.3856    0.0000 C   0  0  0  0  0  0  0  0  0  0  0  0
   12.8000   -2.7713    0.0000 C   0  0  0  0  0  0  0  0  0  0  0  0
  1 23  1  0  0  0  0
  2 23  1  0  0  0  0
  3 23  1  0  0  0  0
  4 24  1  0  0  0  0
  5 26  1  0  0  0  0
  6 28  1  0  0  0  0
  7 19  2  0  0  0  0
  8 13  1  0  0  0  0
  8 15  1  0  0  0  0
  8 19  1  0  0  0  0
  9 14  1  0  0  0  0
  9 16  1  0  0  0  0
  9 21  1  0  0  0  0
 10 12  1  0  0  0  0
 10 16  2  0  0  0  0
 18 11  1  6  0  0  0
 12 21  2  0  0  0  0
 13 14  1  0  0  0  0
 15 16  1  0  0  0  0
 17 18  1  0  0  0  0
 17 19  1  0  0  0  0
 18 20  1  0  0  0  0
 20 22  1  0  0  0  0
 21 23  1  0  0  0  0
 22 24  2  0  0  0  0
 22 25  1  0  0  0  0
 24 27  1  0  0  0  0
 25 26  2  0  0  0  0
 26 28  1  0  0  0  0
 27 28  2  0  0  0  0
M  END
> <Acceptable>
true

> <IC50>
147

$$$$

Generated by Molecular Materials Informatics

 27 31  0  0  0  0  0  0  0  0999 V2000
   -4.1569   -0.8000    0.0000 O   0  0  0  0  0  0  0  0  0  0  0  0
   -2.7713    1.6000    0.0000 O   0  0  0  0  0  0  0  0  0  0  0  0
   -6.9282    2.4000    0.0000 N   0  0  0  0  0  0  0  0  0  0  0  0
   -1.3856   -0.8000    0.0000 N   0  0  0  0  0  0  0  0  0  0  0  0
   -6.9282   -0.8000    0.0000 C   0  0  0  0  0  0  0  0  0  0  0  0
   -5.5426    0.0000    0.0000 C   0  0  0  0  0  0  0  0  0  0  0  0
   -8.3138    0.0000    0.0000 C   0  0  0  0  0  0  0  0  0  0  0  0
   -6.2649    0.2000    0.0000 C   0  0  0  0  0  0  0  0  0  0  0  0
   -5.5426    1.6000    0.0000 C   0  0  0  0  0  0  0  0  0  0  0  0
   -8.3138    1.6000    0.0000 C   0  0  0  0  0  0  0  0  0  0  0  0
   -6.2649    1.4000    0.0000 C   0  0  0  0  0  0  0  0  0  0  0  0
   -2.7713    0.0000    0.0000 C   0  0  0  0  0  0  0  0  0  0  0  0
    0.0000    0.0000    0.0000 C   0  0  0  0  0  0  0  0  0  0  0  0
   -1.3856   -2.4000    0.0000 C   0  0  0  0  0  0  0  0  0  0  0  0
    1.3856   -0.8000    0.0000 C   0  0  0  0  0  0  0  0  0  0  0  0
    0.0000   -3.2000    0.0000 C   0  0  0  0  0  0  0  0  0  0  0  0
    1.3856   -2.4000    0.0000 C   0  0  0  0  0  0  0  0  0  0  0  0
    0.0000    1.6000    0.0000 C   0  0  0  0  0  0  0  0  0  0  0  0
    2.7713    0.0000    0.0000 C   0  0  0  0  0  0  0  0  0  0  0  0
    2.7713   -3.2000    0.0000 C   0  0  0  0  0  0  0  0  0  0  0  0
   -1.3856    2.4000    0.0000 C   0  0  0  0  0  0  0  0  0  0  0  0
    1.3856    2.4000    0.0000 C   0  0  0  0  0  0  0  0  0  0  0  0
    4.1569   -0.8000    0.0000 C   0  0  0  0  0  0  0  0  0  0  0  0
    4.1569   -2.4000    0.0000 C   0  0  0  0  0  0  0  0  0  0  0  0
   -1.3856    4.0000    0.0000 C   0  0  0  0  0  0  0  0  0  0  0  0
    1.3856    4.0000    0.0000 C   0  0  0  0  0  0  0  0  0  0  0  0
    0.0000    4.8000    0.0000 C   0  0  0  0  0  0  0  0  0  0  0  0
  6  1  1  1  0  0  0
  1 12  1  0  0  0  0
  2 12  2  0  0  0  0
  3  9  1  0  0  0  0
  3 10  1  0  0  0  0
  3 11  1  1  0  0  0
  4 12  1  0  0  0  0
  4 13  1  0  0  0  0
  4 14  1  0  0  0  0
  5  6  1  0  0  0  0
  5  7  1  6  0  0  0
  5  8  1  0  0  0  0
  6  9  1  0  0  0  0
  7 10  1  0  0  0  0
  8 11  1  0  0  0  0
 13 15  1  0  0  0  0
 13 18  1  1  0  0  0
 14 16  1  0  0  0  0
 15 17  2  0  0  0  0
 15 19  1  0  0  0  0
 16 17  1  0  0  0  0
 17 20  1  0  0  0  0
 18 21  2  0  0  0  0
 18 22  1  0  0  0  0
 19 23  2  0  0  0  0
 20 24  2  0  0  0  0
 21 25  1  0  0  0  0
 22 26  2  0  0  0  0
 23 24  1  0  0  0  0
 25 27  2  0  0  0  0
 26 27  1  0  0  0  0
M  END
> <Acceptable>
false

> <IC50>
0.27

$$$$

Generated by Molecular Materials Informatics

 18 21  0  0  0  0  0  0  0  0999 V2000
   -5.6000    1.3856    0.0000 O   0  0  0  0  0  0  0  0  0  0  0  0
    1.6000    0.0000    0.0000 N   0  0  0  0  0  0  0  0  0  0  0  0
   -3.2000    0.0000    0.0000 N   0  0  0  0  0  0  0  0  0  0  0  0
    0.0000    0.0000    0.0000 C   0  0  0  0  0  0  0  0  0  0  0  0
   -0.8000   -1.3856    0.0000 C   0  0  0  0  0  0  0  0  0  0  0  0
   -0.8000    1.3856    0.0000 C   0  0  0  0  0  0  0  0  0  0  0  0
   -2.4000   -1.3856    0.0000 C   0  0  0  0  0  0  0  0  0  0  0  0
    0.0000   -2.7713    0.0000 C   0  0  0  0  0  0  0  0  0  0  0  0
   -2.4000    1.3856    0.0000 C   0  0  0  0  0  0  0  0  0  0  0  0
    0.0000    2.7713    0.0000 C   0  0  0  0  0  0  0  0  0  0  0  0
    2.4000   -1.3856    0.0000 C   0  0  0  0  0  0  0  0  0  0  0  0
    2.4000    1.3856    0.0000 C   0  0  0  0  0  0  0  0  0  0  0  0
    1.6000   -2.7713    0.0000 C   0  0  0  0  0  0  0  0  0  0  0  0
    1.6000    2.7713    0.0000 C   0  0  0  0  0  0  0  0  0  0  0  0
   -3.2000   -2.7713    0.0000 C   0  0  0  0  0  0  0  0  0  0  0  0
   -4.8000    0.0000    0.0000 C   0  0  0  0  0  0  0  0  0  0  0  0
   -4.8000   -2.7713    0.0000 C   0  0  0  0  0  0  0  0  0  0  0  0
   -5.6000   -1.3856    0.0000 C   0  0  0  0  0  0  0  0  0  0  0  0
  1 16  2  0  0  0  0
  2  4  1  0  0  0  0
  2 11  1  1  0  0  0
  2 12  1  0  0  0  0
  3  7  1  0  0  0  0
  3  9  1  0  0  0  0
  3 16  1  0  0  0  0
  4  5  1  0  0  0  0
  4  6  1  0  0  0  0
  5  7  1  0  0  0  0
  5  8  1  6  0  0  0
  6  9  1  0  0  0  0
  6 10  1  1  0  0  0
  7 15  1  1  0  0  0
  8 13  1  0  0  0  0
 10 14  1  0  0  0  0
 11 13  1  0  0  0  0
 12 14  1  0  0  0  0
 15 17  1  0  0  0  0
 16 18  1  0  0  0  0
 17 18  2  0  0  0  0
M  END
> <Acceptable>
true

> <IC50>
199.5

$$$$

Generated by Molecular Materials Informatics

 18 18  0  0  0  0  0  0  0  0999 V2000
    5.5426    1.6000    0.0000 S   0  0  0  0  0  0  0  0  0  0  0  0
    4.7426    0.2144    0.0000 O   0  0  0  0  0  0  0  0  0  0  0  0
    6.3426    2.9856    0.0000 O   0  0  0  0  0  0  0  0  0  0  0  0
    4.1569    2.4000    0.0000 N   0  0  0  0  0  0  0  0  0  0  0  0
    2.7713    1.6000    0.0000 C   0  0  0  0  0  0  0  0  0  0  0  0
    1.3856    2.4000    0.0000 C   0  0  0  0  0  0  0  0  0  0  0  0
    0.0000    1.6000    0.0000 C   0  0  0  0  0  0  0  0  0  0  0  0
    0.0000    0.0000    0.0000 C   0  0  0  0  0  0  0  0  0  0  0  0
    1.3856   -0.8000    0.0000 C   0  0  0  0  0  0  0  0  0  0  0  0
    2.7713    0.0000    0.0000 C   0  0  0  0  0  0  0  0  0  0  0  0
   -1.3856   -0.8000    0.0000 C   0  0  0  0  0  0  0  0  0  0  0  0
   -1.3856   -2.4000    0.0000 O   0  0  0  0  0  0  0  0  0  0  0  0
   -2.7713    0.0000    0.0000 C   0  0  0  0  0  0  0  0  0  0  0  0
   -4.1569   -0.8000    0.0000 N   0  0  0  0  0  0  0  0  0  0  0  0
   -5.5426    0.0000    0.0000 C   0  0  0  0  0  0  0  0  0  0  0  0
   -5.5426    1.6000    0.0000 C   0  0  0  0  0  0  0  0  0  0  0  0
   -6.9282   -0.8000    0.0000 C   0  0  0  0  0  0  0  0  0  0  0  0
    6.9282    0.8000    0.0000 C   0  0  0  0  0  0  0  0  0  0  0  0
  1  2  2  0  0  0  0
  1  3  2  0  0  0  0
  1  4  1  0  0  0  0
  1 18  1  0  0  0  0
  4  5  1  0  0  0  0
  5  6  1  0  0  0  0
  5 10  2  0  0  0  0
  6  7  2  0  0  0  0
  7  8  1  0  0  0  0
  8  9  2  0  0  0  0
  8 11  1  0  0  0  0
  9 10  1  0  0  0  0
 11 12  1  6  0  0  0
 11 13  1  0  0  0  0
 13 14  1  0  0  0  0
 14 15  1  0  0  0  0
 15 16  1  0  0  0  0
 15 17  1  0  0  0  0
M  END
> <Acceptable>
true

> <IC50>
74.13

$$$$

Generated by Molecular Materials Informatics

 28 31  0  0  0  0  0  0  0  0999 V2000
    2.4000    4.1569    0.0000 F   0  0  0  0  0  0  0  0  0  0  0  0
    1.6000    2.7713    0.0000 C   0  0  0  0  0  0  0  0  0  0  0  0
    0.0000    2.7713    0.0000 C   0  0  0  0  0  0  0  0  0  0  0  0
   -0.8000    4.1569    0.0000 N   0  0  0  0  0  0  0  0  0  0  0  0
   -0.8000    1.3856    0.0000 C   0  0  0  0  0  0  0  0  0  0  0  0
    0.0000    0.0000    0.0000 C   0  0  0  0  0  0  0  0  0  0  0  0
   -0.8000   -1.3856    0.0000 N   0  3  0  0  0  0  0  0  0  0  0  0
   -2.4000   -1.3856    0.0000 C   0  0  0  0  0  0  0  0  0  0  0  0
   -3.2000    0.0000    0.0000 C   0  0  0  0  0  0  0  0  0  0  0  0
   -2.4000    1.3856    0.0000 C   0  0  0  0  0  0  0  0  0  0  0  0
   -3.2000    2.7713    0.0000 O   0  0  0  0  0  0  0  0  0  0  0  0
   -4.8000    0.0000    0.0000 C   0  0  0  0  0  0  0  0  0  0  0  0
   -5.6000    1.3856    0.0000 O   0  0  0  0  0  0  0  0  0  0  0  0
   -5.6000   -1.3856    0.0000 O   0  0  0  0  0  0  0  0  0  0  0  0
    0.0000   -2.7713    0.0000 C   0  0  0  0  0  0  0  0  0  0  0  0
    0.0000   -4.3713    0.0000 C   0  0  0  0  0  0  0  0  0  0  0  0
    1.3856   -3.5713    0.0000 C   0  0  0  0  0  0  0  0  0  0  0  0
    1.6000    0.0000    0.0000 C   0  0  0  0  0  0  0  0  0  0  0  0
    2.4000   -1.3856    0.0000 F   0  0  0  0  0  0  0  0  0  0  0  0
    2.4000    1.3856    0.0000 C   0  0  0  0  0  0  0  0  0  0  0  0
    4.0000    1.3856    0.0000 N   0  0  0  0  0  0  0  0  0  0  0  0
    4.8000    0.0000    0.0000 C   0  0  0  0  0  0  0  0  0  0  0  0
    6.4000    0.0000    0.0000 C   0  0  0  0  0  0  0  0  0  0  0  0
    7.2000    1.3856    0.0000 N   0  0  0  0  0  0  0  0  0  0  0  0
    6.4000    2.7713    0.0000 C   0  0  0  0  0  0  0  0  0  0  0  0
    7.2000    4.1569    0.0000 C   0  0  0  0  0  0  0  0  0  0  0  0
    4.8000    2.7713    0.0000 C   0  0  0  0  0  0  0  0  0  0  0  0
    7.2000   -1.3856    0.0000 C   0  0  0  0  0  0  0  0  0  0  0  0
  1  2  1  0  0  0  0
  2  3  1  0  0  0  0
  2 20  2  0  0  0  0
  3  4  1  0  0  0  0
  3  5  2  0  0  0  0
  5  6  1  0  0  0  0
  5 10  1  0  0  0  0
  6  7  1  0  0  0  0
  6 18  2  0  0  0  0
  7  8  2  0  0  0  0
  7 15  1  0  0  0  0
  8  9  1  0  0  0  0
  9 10  1  0  0  0  0
  9 12  1  1  0  0  0
 10 11  2  0  0  0  0
 12 13  2  0  0  0  0
 12 14  1  0  0  0  0
 15 16  1  0  0  0  0
 15 17  1  0  0  0  0
 16 17  1  0  0  0  0
 18 19  1  0  0  0  0
 18 20  1  0  0  0  0
 20 21  1  0  0  0  0
 21 22  1  0  0  0  0
 21 27  1  0  0  0  0
 22 23  1  0  0  0  0
 23 24  1  0  0  0  0
 23 28  1  1  0  0  0
 24 25  1  0  0  0  0
 25 26  1  1  0  0  0
 25 27  1  0  0  0  0
M  CHG  1   7   1
M  END
> <Acceptable>
false

> <IC50>
18

$$$$

Generated by Molecular Materials Informatics

 29 33  0  0  0  0  0  0  0  0999 V2000
   -4.1569   -2.4000    0.0000 S   0  0  0  0  0  0  0  0  0  0  0  0
   -5.5426   -3.2000    0.0000 C   0  0  0  0  0  0  0  0  0  0  0  0
   -6.9282   -2.4000    0.0000 O   0  0  0  0  0  0  0  0  0  0  0  0
   -5.5426   -4.8000    0.0000 C   0  0  0  0  0  0  0  0  0  0  0  0
   -4.1569   -0.8000    0.0000 C   0  0  0  0  0  0  0  0  0  0  0  0
   -5.5426    0.0000    0.0000 C   0  0  0  0  0  0  0  0  0  0  0  0
   -5.5426    1.6000    0.0000 C   0  0  0  0  0  0  0  0  0  0  0  0
   -6.9282    2.4000    0.0000 C   0  0  0  0  0  0  0  0  0  0  0  0
   -6.9282    4.0000    0.0000 C   0  0  0  0  0  0  0  0  0  0  0  0
   -8.3138    4.8000    0.0000 O   0  0  0  0  0  0  0  0  0  0  0  0
   -5.5426    4.8000    0.0000 C   0  0  0  0  0  0  0  0  0  0  0  0
   -4.1569    4.0000    0.0000 C   0  0  0  0  0  0  0  0  0  0  0  0
   -4.1569    2.4000    0.0000 C   0  0  0  0  0  0  0  0  0  0  0  0
   -2.7713    3.2000    0.0000 C   0  0  0  0  0  0  0  0  0  0  0  0
   -2.7713    1.6000    0.0000 C   0  0  0  0  0  0  0  0  0  0  0  0
   -1.3856    2.4000    0.0000 C   0  0  0  0  0  0  0  0  0  0  0  0
    0.0000    1.6000    0.0000 C   0  0  0  0  0  0  0  0  0  0  0  0
    0.0000    0.0000    0.0000 C   0  0  0  0  0  0  0  0  0  0  0  0
    0.9405    1.2944    0.0000 C   0  0  0  0  0  0  0  0  0  0  0  0
   -1.3856   -0.8000    0.0000 C   0  0  0  0  0  0  0  0  0  0  0  0
   -1.0530   -2.3650    0.0000 C   0  0  0  0  0  0  0  0  0  0  0  0
    0.5383   -2.5323    0.0000 C   0  0  0  0  0  0  0  0  0  0  0  0
    1.1890   -1.0706    0.0000 C   0  0  0  0  0  0  0  0  0  0  0  0
    1.8398    0.3911    0.0000 O   0  0  0  0  0  0  0  0  0  0  0  0
    3.4310    0.2238    0.0000 C   0  0  0  0  0  0  0  0  0  0  0  0
    4.5017    1.4129    0.0000 O   0  0  0  0  0  0  0  0  0  0  0  0
    3.7637   -1.3412    0.0000 C   0  0  0  0  0  0  0  0  0  0  0  0
    2.3781   -2.1412    0.0000 C   0  0  0  0  0  0  0  0  0  0  0  0
   -2.7713    0.0000    0.0000 C   0  0  0  0  0  0  0  0  0  0  0  0
  1  2  1  0  0  0  0
  5  1  1  6  0  0  0
  2  3  2  0  0  0  0
  2  4  1  0  0  0  0
  5  6  1  0  0  0  0
  5 29  1  0  0  0  0
  6  7  1  0  0  0  0
  7  8  2  0  0  0  0
  7 13  1  0  0  0  0
  8  9  1  0  0  0  0
  9 10  2  0  0  0  0
  9 11  1  0  0  0  0
 11 12  1  0  0  0  0
 12 13  1  0  0  0  0
 13 14  1  1  0  0  0
 13 15  1  0  0  0  0
 15 16  1  0  0  0  0
 29 15  1  6  0  0  0
 16 17  1  0  0  0  0
 17 18  1  0  0  0  0
 18 19  1  1  0  0  0
 18 20  1  0  0  0  0
 18 23  1  0  0  0  0
 20 21  1  1  0  0  0
 20 29  1  0  0  0  0
 21 22  1  0  0  0  0
 22 23  1  0  0  0  0
 23 24  1  0  0  0  0
 23 28  1  6  0  0  0
 24 25  1  0  0  0  0
 25 26  2  0  0  0  0
 25 27  1  0  0  0  0
 27 28  1  0  0  0  0
M  END
> <Acceptable>
false

> <IC50>
23.1

$$$$

Generated by Molecular Materials Informatics

 16 17  0  0  0  0  0  0  0  0999 V2000
    0.0000    2.7713    0.0000 O   0  0  0  0  0  0  0  0  0  0  0  0
   -0.8000    1.3856    0.0000 C   0  0  0  0  0  0  0  0  0  0  0  0
   -2.4000    1.3856    0.0000 N   0  0  0  0  0  0  0  0  0  0  0  0
   -3.2000    0.0000    0.0000 C   0  0  0  0  0  0  0  0  0  0  0  0
   -4.8000    0.0000    0.0000 O   0  0  0  0  0  0  0  0  0  0  0  0
   -2.4000   -1.3856    0.0000 C   0  0  0  0  0  0  0  0  0  0  0  0
   -3.2000   -2.7713    0.0000 C   0  0  0  0  0  0  0  0  0  0  0  0
   -0.8000   -1.3856    0.0000 C   0  0  0  0  0  0  0  0  0  0  0  0
    0.0000    0.0000    0.0000 N   0  0  0  0  0  0  0  0  0  0  0  0
    1.6000    0.0000    0.0000 C   0  0  0  0  0  0  0  0  0  0  0  0
    2.5405   -1.2944    0.0000 O   0  0  0  0  0  0  0  0  0  0  0  0
    4.0621   -0.8000    0.0000 C   0  0  0  0  0  0  0  0  0  0  0  0
    4.0621    0.8000    0.0000 C   0  0  0  0  0  0  0  0  0  0  0  0
    2.5405    1.2944    0.0000 C   0  0  0  0  0  0  0  0  0  0  0  0
    5.3566   -1.7405    0.0000 C   0  0  0  0  0  0  0  0  0  0  0  0
    6.8182   -1.0897    0.0000 O   0  0  0  0  0  0  0  0  0  0  0  0
  1  2  2  0  0  0  0
  2  3  1  0  0  0  0
  2  9  1  0  0  0  0
  3  4  1  0  0  0  0
  4  5  2  0  0  0  0
  4  6  1  0  0  0  0
  6  7  1  0  0  0  0
  6  8  2  0  0  0  0
  8  9  1  0  0  0  0
 10  9  1  1  0  0  0
 10 11  1  0  0  0  0
 10 14  1  0  0  0  0
 11 12  1  0  0  0  0
 12 13  1  0  0  0  0
 12 15  1  6  0  0  0
 13 14  2  0  0  0  0
 15 16  1  0  0  0  0
M  END
> <Acceptable>
true

> <IC50>
N/A

$$$$

Generated by Molecular Materials Informatics

 27 29  0  0  0  0  0  0  0  0999 V2000
   -8.3899   -1.7492    0.0000 S   0  0  0  0  0  0  0  0  0  0  0  0
   -9.4605   -2.9383    0.0000 C   0  0  0  0  0  0  0  0  0  0  0  0
   -8.6605   -4.3239    0.0000 C   0  0  0  0  0  0  0  0  0  0  0  0
   -7.0954   -3.9912    0.0000 C   0  0  0  0  0  0  0  0  0  0  0  0
   -6.9282   -2.4000    0.0000 C   0  0  0  0  0  0  0  0  0  0  0  0
   -5.5426   -1.6000    0.0000 C   0  0  0  0  0  0  0  0  0  0  0  0
   -4.1569   -2.4000    0.0000 C   0  0  0  0  0  0  0  0  0  0  0  0
   -2.7713   -1.6000    0.0000 N   0  0  0  0  0  0  0  0  0  0  0  0
   -1.3856   -2.4000    0.0000 C   0  0  0  0  0  0  0  0  0  0  0  0
    0.0000   -1.6000    0.0000 C   0  0  0  0  0  0  0  0  0  0  0  0
    0.0000    0.0000    0.0000 C   0  0  0  0  0  0  0  0  0  0  0  0
    1.5757   -0.2778    0.0000 N   0  0  0  0  0  0  0  0  0  0  0  0
    2.6042    0.9478    0.0000 C   0  0  0  0  0  0  0  0  0  0  0  0
    4.1798    0.6700    0.0000 C   0  0  0  0  0  0  0  0  0  0  0  0
    5.2083    1.8957    0.0000 C   0  0  0  0  0  0  0  0  0  0  0  0
    4.6611    3.3992    0.0000 C   0  0  0  0  0  0  0  0  0  0  0  0
    3.0854    3.6770    0.0000 C   0  0  0  0  0  0  0  0  0  0  0  0
    2.0569    2.4513    0.0000 C   0  0  0  0  0  0  0  0  0  0  0  0
    2.1229   -1.7813    0.0000 C   0  0  0  0  0  0  0  0  0  0  0  0
    1.0945   -3.0070    0.0000 O   0  0  0  0  0  0  0  0  0  0  0  0
    3.6986   -2.0592    0.0000 C   0  0  0  0  0  0  0  0  0  0  0  0
    4.2458   -3.5627    0.0000 C   0  0  0  0  0  0  0  0  0  0  0  0
   -1.3856    0.8000    0.0000 C   0  0  0  0  0  0  0  0  0  0  0  0
   -2.7713    0.0000    0.0000 C   0  0  0  0  0  0  0  0  0  0  0  0
    0.5472    1.5035    0.0000 C   0  0  0  0  0  0  0  0  0  0  0  0
   -0.4812    2.7292    0.0000 O   0  0  0  0  0  0  0  0  0  0  0  0
    0.0660    4.2327    0.0000 C   0  0  0  0  0  0  0  0  0  0  0  0
  1  2  1  0  0  0  0
  1  5  1  0  0  0  0
  2  3  2  0  0  0  0
  3  4  1  0  0  0  0
  4  5  2  0  0  0  0
  5  6  1  0  0  0  0
  6  7  1  0  0  0  0
  8  7  1  1  0  0  0
  8  9  1  0  0  0  0
  8 24  1  0  0  0  0
  9 10  1  0  0  0  0
 10 11  1  0  0  0  0
 11 12  1  0  0  0  0
 11 23  1  0  0  0  0
 11 25  1  6  0  0  0
 12 13  1  0  0  0  0
 12 19  1  0  0  0  0
 13 14  1  0  0  0  0
 13 18  2  0  0  0  0
 14 15  2  0  0  0  0
 15 16  1  0  0  0  0
 16 17  2  0  0  0  0
 17 18  1  0  0  0  0
 19 20  2  0  0  0  0
 19 21  1  0  0  0  0
 21 22  1  0  0  0  0
 23 24  1  0  0  0  0
 25 26  1  0  0  0  0
 26 27  1  0  0  0  0
M  END
> <Acceptable>
false

> <IC50>
N/A

$$$$

Generated by Molecular Materials Informatics

 17 18  0  0  0  0  0  0  0  0999 V2000
    0.0000    0.0000    0.0000 S   0  0  0  0  0  0  0  0  0  0  0  0
    4.5036   -1.9239    0.0000 O   0  0  0  0  0  0  0  0  0  0  0  0
   -0.8000    1.3856    0.0000 O   0  0  0  0  0  0  0  0  0  0  0  0
    0.8000   -1.3856    0.0000 O   0  0  0  0  0  0  0  0  0  0  0  0
    1.3856    0.8000    0.0000 N   0  0  0  0  0  0  0  0  0  0  0  0
    2.9385   -1.5912    0.0000 N   0  0  0  0  0  0  0  0  0  0  0  0
   -5.5426   -3.2000    0.0000 N   0  0  0  0  0  0  0  0  0  0  0  0
   -1.3856   -0.8000    0.0000 C   0  0  0  0  0  0  0  0  0  0  0  0
   -1.3856   -2.4000    0.0000 C   0  0  0  0  0  0  0  0  0  0  0  0
   -2.7713    0.0000    0.0000 C   0  0  0  0  0  0  0  0  0  0  0  0
    2.7713    0.0000    0.0000 C   0  0  0  0  0  0  0  0  0  0  0  0
   -4.1569   -2.4000    0.0000 C   0  0  0  0  0  0  0  0  0  0  0  0
   -2.7713   -3.2000    0.0000 C   0  0  0  0  0  0  0  0  0  0  0  0
   -4.1569   -0.8000    0.0000 C   0  0  0  0  0  0  0  0  0  0  0  0
    4.2330    0.6508    0.0000 C   0  0  0  0  0  0  0  0  0  0  0  0
    5.3036   -0.5383    0.0000 C   0  0  0  0  0  0  0  0  0  0  0  0
    6.8948   -0.3710    0.0000 C   0  0  0  0  0  0  0  0  0  0  0  0
  1  3  2  0  0  0  0
  1  4  2  0  0  0  0
  1  5  1  0  0  0  0
  1  8  1  0  0  0  0
  2  6  1  0  0  0  0
  2 16  1  0  0  0  0
  5 11  1  0  0  0  0
  6 11  2  0  0  0  0
  7 12  1  0  0  0  0
  8  9  2  0  0  0  0
  8 10  1  0  0  0  0
  9 13  1  0  0  0  0
 10 14  2  0  0  0  0
 11 15  1  0  0  0  0
 12 13  2  0  0  0  0
 12 14  1  0  0  0  0
 15 16  2  0  0  0  0
 16 17  1  0  0  0  0
M  END
> <Acceptable>
true

> <IC50>
10000

$$$$

Generated by Molecular Materials Informatics

 25 27  0  0  0  0  0  0  0  0999 V2000
   -8.3837    2.2234    0.0000 S   0  0  0  0  0  0  0  0  0  0  0  0
   -8.8782    0.7017    0.0000 O   0  0  0  0  0  0  0  0  0  0  0  0
   -9.4543    3.4125    0.0000 C   0  0  0  0  0  0  0  0  0  0  0  0
   -6.8187    2.5561    0.0000 C   0  0  0  0  0  0  0  0  0  0  0  0
   -5.7481    1.3671    0.0000 C   0  0  0  0  0  0  0  0  0  0  0  0
   -4.1831    1.6997    0.0000 C   0  0  0  0  0  0  0  0  0  0  0  0
   -3.6886    3.2214    0.0000 C   0  0  0  0  0  0  0  0  0  0  0  0
   -4.7592    4.4104    0.0000 C   0  0  0  0  0  0  0  0  0  0  0  0
   -6.3243    4.0778    0.0000 C   0  0  0  0  0  0  0  0  0  0  0  0
   -2.1236    3.5541    0.0000 C   0  0  0  0  0  0  0  0  0  0  0  0
   -1.0530    2.3650    0.0000 C   0  0  0  0  0  0  0  0  0  0  0  0
   -1.3856    0.8000    0.0000 C   0  0  0  0  0  0  0  0  0  0  0  0
   -2.7713    0.0000    0.0000 C   0  0  0  0  0  0  0  0  0  0  0  0
   -2.7713   -1.6000    0.0000 C   0  0  0  0  0  0  0  0  0  0  0  0
   -1.3856   -2.4000    0.0000 C   0  0  0  0  0  0  0  0  0  0  0  0
   -1.3856   -4.0000    0.0000 F   0  0  0  0  0  0  0  0  0  0  0  0
    0.0000   -1.6000    0.0000 C   0  0  0  0  0  0  0  0  0  0  0  0
    0.0000    0.0000    0.0000 C   0  0  0  0  0  0  0  0  0  0  0  0
    1.1890    1.0706    0.0000 C   0  0  0  0  0  0  0  0  0  0  0  0
    2.7541    0.7380    0.0000 C   0  0  0  0  0  0  0  0  0  0  0  0
    3.8247    1.9270    0.0000 C   0  0  0  0  0  0  0  0  0  0  0  0
    3.3302    3.4487    0.0000 O   0  0  0  0  0  0  0  0  0  0  0  0
    5.3897    1.5943    0.0000 O   0  0  0  0  0  0  0  0  0  0  0  0
    0.5383    2.5323    0.0000 C   0  0  0  0  0  0  0  0  0  0  0  0
    1.3382    3.9179    0.0000 C   0  0  0  0  0  0  0  0  0  0  0  0
  1  2  2  0  0  0  0
  1  3  1  6  0  0  0
  1  4  1  0  0  0  0
  4  5  1  0  0  0  0
  4  9  2  0  0  0  0
  5  6  2  0  0  0  0
  6  7  1  0  0  0  0
  7  8  2  0  0  0  0
  7 10  1  0  0  0  0
  8  9  1  0  0  0  0
 10 11  2  0  0  0  0
 11 12  1  0  0  0  0
 11 24  1  0  0  0  0
 12 13  1  0  0  0  0
 12 18  2  0  0  0  0
 13 14  2  0  0  0  0
 14 15  1  0  0  0  0
 15 16  1  0  0  0  0
 15 17  2  0  0  0  0
 17 18  1  0  0  0  0
 18 19  1  0  0  0  0
 19 20  1  0  0  0  0
 19 24  2  0  0  0  0
 20 21  1  0  0  0  0
 21 22  2  0  0  0  0
 21 23  1  0  0  0  0
 24 25  1  0  0  0  0
M  END
> <Acceptable>
true

> <IC50>
N/A

$$$$

Generated by Molecular Materials Informatics

 20 21  0  0  0  0  0  0  0  0999 V2000
   -4.8000    2.7713    0.0000 S   0  0  0  0  0  0  0  0  0  0  0  0
   -4.8000    1.1713    0.0000 O   0  0  0  0  0  0  0  0  0  0  0  0
   -4.8000    4.3713    0.0000 O   0  0  0  0  0  0  0  0  0  0  0  0
   -6.4000    2.7713    0.0000 N   0  0  0  0  0  0  0  0  0  0  0  0
   -7.2000    4.1569    0.0000 C   0  0  0  0  0  0  0  0  0  0  0  0
   -3.2000    2.7713    0.0000 C   0  0  0  0  0  0  0  0  0  0  0  0
   -2.4000    1.3856    0.0000 C   0  0  0  0  0  0  0  0  0  0  0  0
   -3.2000    0.0000    0.0000 C   0  0  0  0  0  0  0  0  0  0  0  0
   -2.4000   -1.3856    0.0000 C   0  0  0  0  0  0  0  0  0  0  0  0
   -0.8000   -1.3856    0.0000 C   0  0  0  0  0  0  0  0  0  0  0  0
    0.2706   -2.5747    0.0000 N   0  0  0  0  0  0  0  0  0  0  0  0
    1.7323   -1.9239    0.0000 C   0  0  0  0  0  0  0  0  0  0  0  0
    1.5650   -0.3327    0.0000 C   0  0  0  0  0  0  0  0  0  0  0  0
    2.7541    0.7380    0.0000 C   0  0  0  0  0  0  0  0  0  0  0  0
    4.2758    0.2435    0.0000 C   0  0  0  0  0  0  0  0  0  0  0  0
    5.4648    1.3141    0.0000 N   0  0  0  0  0  0  0  0  0  0  0  0
    5.1321    2.8792    0.0000 C   0  0  0  0  0  0  0  0  0  0  0  0
    6.9865    0.8197    0.0000 C   0  0  0  0  0  0  0  0  0  0  0  0
    0.0000    0.0000    0.0000 C   0  0  0  0  0  0  0  0  0  0  0  0
   -0.8000    1.3856    0.0000 C   0  0  0  0  0  0  0  0  0  0  0  0
  1  2  2  0  0  0  0
  1  3  2  0  0  0  0
  1  4  1  0  0  0  0
  1  6  1  0  0  0  0
  4  5  1  0  0  0  0
  6  7  1  0  0  0  0
  7  8  1  0  0  0  0
  7 20  2  0  0  0  0
  8  9  2  0  0  0  0
  9 10  1  0  0  0  0
 10 11  1  0  0  0  0
 10 19  2  0  0  0  0
 11 12  2  0  0  0  0
 12 13  1  0  0  0  0
 13 14  1  1  0  0  0
 13 19  1  0  0  0  0
 14 15  1  0  0  0  0
 15 16  1  0  0  0  0
 16 17  1  0  0  0  0
 16 18  1  0  0  0  0
 19 20  1  0  0  0  0
M  END
> <Acceptable>
true

> <IC50>
N/A

$$$$

Generated by Molecular Materials Informatics

 29 31  0  0  0  0  0  0  0  0999 V2000
    3.2000   -2.7713    0.0000 F   0  0  0  0  0  0  0  0  0  0  0  0
   -8.7190   -2.3030    0.0000 O   0  0  0  0  0  0  0  0  0  0  0  0
   -3.1179    2.7239    0.0000 O   0  0  0  0  0  0  0  0  0  0  0  0
  -13.8077    0.4144    0.0000 N   0  0  0  0  0  0  0  0  0  0  0  0
   -4.7702    1.2782    0.0000 N   0  0  0  0  0  0  0  0  0  0  0  0
   -9.5753    0.3327    0.0000 N   0  0  0  0  0  0  0  0  0  0  0  0
   -0.2706    2.5747    0.0000 N   0  0  0  0  0  0  0  0  0  0  0  0
  -12.2861    0.9088    0.0000 C   0  0  0  0  0  0  0  0  0  0  0  0
   -6.8646   -0.2435    0.0000 C   0  0  0  0  0  0  0  0  0  0  0  0
   -5.5702   -1.1840    0.0000 C   0  0  0  0  0  0  0  0  0  0  0  0
   -4.2758   -0.2435    0.0000 C   0  0  0  0  0  0  0  0  0  0  0  0
  -11.0970   -0.1618    0.0000 C   0  0  0  0  0  0  0  0  0  0  0  0
   -6.3702    1.2782    0.0000 C   0  0  0  0  0  0  0  0  0  0  0  0
  -14.1404   -1.1506    0.0000 C   0  0  0  0  0  0  0  0  0  0  0  0
  -14.9968    1.4850    0.0000 C   0  0  0  0  0  0  0  0  0  0  0  0
   -8.3863   -0.7380    0.0000 C   0  0  0  0  0  0  0  0  0  0  0  0
   -1.5650    0.3327    0.0000 C   0  0  0  0  0  0  0  0  0  0  0  0
   -2.7541   -0.7380    0.0000 C   0  0  0  0  0  0  0  0  0  0  0  0
    0.0000    0.0000    0.0000 C   0  0  0  0  0  0  0  0  0  0  0  0
   -5.5702   -2.7840    0.0000 C   0  0  0  0  0  0  0  0  0  0  0  0
    0.8000    1.3856    0.0000 C   0  0  0  0  0  0  0  0  0  0  0  0
   -7.3106    2.5726    0.0000 C   0  0  0  0  0  0  0  0  0  0  0  0
   -1.7323    1.9239    0.0000 C   0  0  0  0  0  0  0  0  0  0  0  0
  -15.6621   -1.6451    0.0000 C   0  0  0  0  0  0  0  0  0  0  0  0
  -16.5185    0.9906    0.0000 C   0  0  0  0  0  0  0  0  0  0  0  0
    0.8000   -1.3856    0.0000 C   0  0  0  0  0  0  0  0  0  0  0  0
    2.4000    1.3856    0.0000 C   0  0  0  0  0  0  0  0  0  0  0  0
    2.4000   -1.3856    0.0000 C   0  0  0  0  0  0  0  0  0  0  0  0
    3.2000    0.0000    0.0000 C   0  0  0  0  0  0  0  0  0  0  0  0
  1 28  1  0  0  0  0
  2 16  2  0  0  0  0
  3 23  2  0  0  0  0
  4  8  1  0  0  0  0
  4 14  1  0  0  0  0
  4 15  1  0  0  0  0
  5 11  1  0  0  0  0
  5 13  1  0  0  0  0
  6 12  1  0  0  0  0
  6 16  1  0  0  0  0
  7 21  1  0  0  0  0
  7 23  1  0  0  0  0
  8 12  1  0  0  0  0
  9 10  1  0  0  0  0
  9 13  2  0  0  0  0
  9 16  1  0  0  0  0
 10 11  2  0  0  0  0
 10 20  1  0  0  0  0
 11 18  1  0  0  0  0
 13 22  1  0  0  0  0
 14 24  1  0  0  0  0
 15 25  1  0  0  0  0
 17 18  2  0  0  0  0
 17 19  1  0  0  0  0
 17 23  1  0  0  0  0
 19 21  2  0  0  0  0
 19 26  1  0  0  0  0
 21 27  1  0  0  0  0
 26 28  2  0  0  0  0
 27 29  2  0  0  0  0
 28 29  1  0  0  0  0
M  END
> <Acceptable>
false

> <IC50>
0.27

$$$$

Generated by Molecular Materials Informatics

 15 17  0  0  0  0  0  0  0  0999 V2000
    1.3856    2.4000    0.0000 N   0  0  0  0  0  0  0  0  0  0  0  0
    1.3856    0.8000    0.0000 C   0  0  0  0  0  0  0  0  0  0  0  0
    0.0000    0.0000    0.0000 C   0  0  0  0  0  0  0  0  0  0  0  0
   -1.3856    0.8000    0.0000 C   0  0  0  0  0  0  0  0  0  0  0  0
   -2.7713    0.0000    0.0000 C   0  0  0  0  0  0  0  0  0  0  0  0
   -2.7713   -1.6000    0.0000 C   0  0  0  0  0  0  0  0  0  0  0  0
   -1.3856   -2.4000    0.0000 C   0  0  0  0  0  0  0  0  0  0  0  0
    0.0000   -1.6000    0.0000 C   0  0  0  0  0  0  0  0  0  0  0  0
    1.3856   -2.4000    0.0000 N   0  0  0  0  0  0  0  0  0  0  0  0
    2.7713   -1.6000    0.0000 C   0  0  0  0  0  0  0  0  0  0  0  0
    4.1569   -2.4000    0.0000 C   0  0  0  0  0  0  0  0  0  0  0  0
    5.5426   -1.6000    0.0000 C   0  0  0  0  0  0  0  0  0  0  0  0
    5.5426    0.0000    0.0000 C   0  0  0  0  0  0  0  0  0  0  0  0
    4.1569    0.8000    0.0000 C   0  0  0  0  0  0  0  0  0  0  0  0
    2.7713    0.0000    0.0000 C   0  0  0  0  0  0  0  0  0  0  0  0
  1  2  1  0  0  0  0
  2  3  1  0  0  0  0
  2 15  2  0  0  0  0
  3  4  1  0  0  0  0
  3  8  2  0  0  0  0
  4  5  2  0  0  0  0
  5  6  1  0  0  0  0
  6  7  2  0  0  0  0
  7  8  1  0  0  0  0
  8  9  1  0  0  0  0
  9 10  2  0  0  0  0
 10 11  1  0  0  0  0
 10 15  1  0  0  0  0
 11 12  1  0  0  0  0
 12 13  1  0  0  0  0
 13 14  1  0  0  0  0
 14 15  1  0  0  0  0
M  END
> <Acceptable>
true

> <IC50>
N/A

$$$$

Generated by Molecular Materials Informatics

 29 34  0  0  0  0  0  0  0  0999 V2000
    0.0000    3.2000    0.0000 O   0  0  0  0  0  0  0  0  0  0  0  0
    1.3856    2.4000    0.0000 C   0  0  0  0  0  0  0  0  0  0  0  0
    1.3856    0.8000    0.0000 N   0  0  0  0  0  0  0  0  0  0  0  0
    2.7713    0.0000    0.0000 C   0  0  0  0  0  0  0  0  0  0  0  0
    2.7713   -1.6000    0.0000 C   0  0  0  0  0  0  0  0  0  0  0  0
    1.3856   -2.4000    0.0000 C   0  0  0  0  0  0  0  0  0  0  0  0
    1.0530   -3.9650    0.0000 C   0  0  0  0  0  0  0  0  0  0  0  0
    1.9934   -5.2595    0.0000 C   0  0  0  0  0  0  0  0  0  0  0  0
    1.3427   -6.7211    0.0000 C   0  0  0  0  0  0  0  0  0  0  0  0
   -0.2486   -6.8884    0.0000 C   0  0  0  0  0  0  0  0  0  0  0  0
   -1.1890   -5.5940    0.0000 C   0  0  0  0  0  0  0  0  0  0  0  0
   -0.5383   -4.1323    0.0000 C   0  0  0  0  0  0  0  0  0  0  0  0
   -1.1890   -2.6706    0.0000 N   0  0  0  0  0  0  0  0  0  0  0  0
    0.0000   -1.6000    0.0000 C   0  0  0  0  0  0  0  0  0  0  0  0
    0.0000    0.0000    0.0000 C   0  0  0  0  0  0  0  0  0  0  0  0
   -1.3856    0.8000    0.0000 C   0  0  0  0  0  0  0  0  0  0  0  0
   -1.3856    2.4000    0.0000 C   0  0  0  0  0  0  0  0  0  0  0  0
   -2.7713    3.2000    0.0000 C   0  0  0  0  0  0  0  0  0  0  0  0
   -4.1569    2.4000    0.0000 C   0  0  0  0  0  0  0  0  0  0  0  0
   -5.6786    2.8944    0.0000 O   0  0  0  0  0  0  0  0  0  0  0  0
   -6.6191    1.6000    0.0000 C   0  0  0  0  0  0  0  0  0  0  0  0
   -5.6786    0.3056    0.0000 O   0  0  0  0  0  0  0  0  0  0  0  0
   -4.1569    0.8000    0.0000 C   0  0  0  0  0  0  0  0  0  0  0  0
   -2.7713    0.0000    0.0000 C   0  0  0  0  0  0  0  0  0  0  0  0
    4.1569    0.8000    0.0000 C   0  0  0  0  0  0  0  0  0  0  0  0
    5.5426    0.0000    0.0000 O   0  0  0  0  0  0  0  0  0  0  0  0
    4.1569    2.4000    0.0000 N   0  0  0  0  0  0  0  0  0  0  0  0
    5.5426    3.2000    0.0000 C   0  0  0  0  0  0  0  0  0  0  0  0
    2.7713    3.2000    0.0000 C   0  0  0  0  0  0  0  0  0  0  0  0
  1  2  2  0  0  0  0
  2  3  1  0  0  0  0
  2 29  1  0  0  0  0
  3  4  1  0  0  0  0
  3 15  1  0  0  0  0
  4  5  1  1  0  0  0
  4 25  1  0  0  0  0
  5  6  1  0  0  0  0
  6  7  1  0  0  0  0
  6 14  2  0  0  0  0
  7  8  1  0  0  0  0
  7 12  2  0  0  0  0
  8  9  2  0  0  0  0
  9 10  1  0  0  0  0
 10 11  2  0  0  0  0
 11 12  1  0  0  0  0
 12 13  1  0  0  0  0
 13 14  1  0  0  0  0
 14 15  1  0  0  0  0
 15 16  1  6  0  0  0
 16 17  1  0  0  0  0
 16 24  2  0  0  0  0
 17 18  2  0  0  0  0
 18 19  1  0  0  0  0
 19 20  1  0  0  0  0
 19 23  2  0  0  0  0
 20 21  1  0  0  0  0
 21 22  1  0  0  0  0
 22 23  1  0  0  0  0
 23 24  1  0  0  0  0
 25 26  2  0  0  0  0
 25 27  1  0  0  0  0
 27 28  1  0  0  0  0
 27 29  1  0  0  0  0
M  END
> <Acceptable>
true

> <IC50>
100

$$$$

Generated by Molecular Materials Informatics

 29 34  0  0  0  0  0  0  0  0999 V2000
   -5.5426    0.0000    0.0000 O   0  0  0  0  0  0  0  0  0  0  0  0
    0.0000    3.2000    0.0000 O   0  0  0  0  0  0  0  0  0  0  0  0
    5.6786    0.3056    0.0000 O   0  0  0  0  0  0  0  0  0  0  0  0
    5.6786    2.8944    0.0000 O   0  0  0  0  0  0  0  0  0  0  0  0
   -1.3856    0.8000    0.0000 N   0  0  0  0  0  0  0  0  0  0  0  0
    1.1890   -2.6706    0.0000 N   0  0  0  0  0  0  0  0  0  0  0  0
   -4.1569    2.4000    0.0000 N   0  0  0  0  0  0  0  0  0  0  0  0
   -2.7713    0.0000    0.0000 C   0  0  0  0  0  0  0  0  0  0  0  0
    0.0000    0.0000    0.0000 C   0  0  0  0  0  0  0  0  0  0  0  0
   -2.7713   -1.6000    0.0000 C   0  0  0  0  0  0  0  0  0  0  0  0
    0.0000   -1.6000    0.0000 C   0  0  0  0  0  0  0  0  0  0  0  0
   -1.3856   -2.4000    0.0000 C   0  0  0  0  0  0  0  0  0  0  0  0
   -4.1569    0.8000    0.0000 C   0  0  0  0  0  0  0  0  0  0  0  0
   -1.0530   -3.9650    0.0000 C   0  0  0  0  0  0  0  0  0  0  0  0
   -1.3856    2.4000    0.0000 C   0  0  0  0  0  0  0  0  0  0  0  0
    1.3856    0.8000    0.0000 C   0  0  0  0  0  0  0  0  0  0  0  0
   -2.7713    3.2000    0.0000 C   0  0  0  0  0  0  0  0  0  0  0  0
    0.5383   -4.1323    0.0000 C   0  0  0  0  0  0  0  0  0  0  0  0
   -1.9934   -5.2595    0.0000 C   0  0  0  0  0  0  0  0  0  0  0  0
    2.7713    0.0000    0.0000 C   0  0  0  0  0  0  0  0  0  0  0  0
    1.3856    2.4000    0.0000 C   0  0  0  0  0  0  0  0  0  0  0  0
    1.1890   -5.5940    0.0000 C   0  0  0  0  0  0  0  0  0  0  0  0
   -5.5426    3.2000    0.0000 C   0  0  0  0  0  0  0  0  0  0  0  0
    4.1569    0.8000    0.0000 C   0  0  0  0  0  0  0  0  0  0  0  0
   -1.3427   -6.7211    0.0000 C   0  0  0  0  0  0  0  0  0  0  0  0
    2.7713    3.2000    0.0000 C   0  0  0  0  0  0  0  0  0  0  0  0
    0.2486   -6.8884    0.0000 C   0  0  0  0  0  0  0  0  0  0  0  0
    4.1569    2.4000    0.0000 C   0  0  0  0  0  0  0  0  0  0  0  0
    6.6191    1.6000    0.0000 C   0  0  0  0  0  0  0  0  0  0  0  0
  1 13  2  0  0  0  0
  2 15  2  0  0  0  0
  3 24  1  0  0  0  0
  3 29  1  0  0  0  0
  4 28  1  0  0  0  0
  4 29  1  0  0  0  0
  5  8  1  0  0  0  0
  5  9  1  0  0  0  0
  5 15  1  0  0  0  0
  6 11  1  0  0  0  0
  6 18  1  0  0  0  0
  7 13  1  0  0  0  0
  7 17  1  0  0  0  0
  7 23  1  0  0  0  0
  8 10  1  6  0  0  0
  8 13  1  0  0  0  0
  9 11  1  0  0  0  0
  9 16  1  6  0  0  0
 10 12  1  0  0  0  0
 11 12  2  0  0  0  0
 12 14  1  0  0  0  0
 14 18  2  0  0  0  0
 14 19  1  0  0  0  0
 15 17  1  0  0  0  0
 16 20  2  0  0  0  0
 16 21  1  0  0  0  0
 18 22  1  0  0  0  0
 19 25  2  0  0  0  0
 20 24  1  0  0  0  0
 21 26  2  0  0  0  0
 22 27  2  0  0  0  0
 24 28  2  0  0  0  0
 25 27  1  0  0  0  0
 26 28  1  0  0  0  0
M  END
> <Acceptable>
true

> <IC50>
100

$$$$

Generated by Molecular Materials Informatics

 28 30  0  0  0  0  0  0  0  0999 V2000
   -5.5426    3.2000    0.0000 O   0  0  0  0  0  0  0  0  0  0  0  0
   -6.9282    2.4000    0.0000 C   0  0  0  0  0  0  0  0  0  0  0  0
   -8.3138    3.2000    0.0000 C   0  0  0  0  0  0  0  0  0  0  0  0
   -9.6995    2.4000    0.0000 N   0  0  0  0  0  0  0  0  0  0  0  0
   -9.6995    0.8000    0.0000 C   0  0  0  0  0  0  0  0  0  0  0  0
  -11.0851    3.2000    0.0000 C   0  0  0  0  0  0  0  0  0  0  0  0
   -4.1569    2.4000    0.0000 C   0  0  0  0  0  0  0  0  0  0  0  0
   -4.1569    0.8000    0.0000 C   0  0  0  0  0  0  0  0  0  0  0  0
   -2.7713    0.0000    0.0000 C   0  0  0  0  0  0  0  0  0  0  0  0
   -1.3856    0.8000    0.0000 C   0  0  0  0  0  0  0  0  0  0  0  0
   -1.3856    2.4000    0.0000 C   0  0  0  0  0  0  0  0  0  0  0  0
   -2.7713    3.2000    0.0000 C   0  0  0  0  0  0  0  0  0  0  0  0
    0.0000    0.0000    0.0000 C   0  0  0  0  0  0  0  0  0  0  0  0
    0.0000   -1.6000    0.0000 C   0  0  0  0  0  0  0  0  0  0  0  0
   -1.3856   -2.4000    0.0000 C   0  0  0  0  0  0  0  0  0  0  0  0
   -1.3856   -4.0000    0.0000 C   0  0  0  0  0  0  0  0  0  0  0  0
    0.0000   -4.8000    0.0000 C   0  0  0  0  0  0  0  0  0  0  0  0
    1.3856   -4.0000    0.0000 C   0  0  0  0  0  0  0  0  0  0  0  0
    1.3856   -2.4000    0.0000 C   0  0  0  0  0  0  0  0  0  0  0  0
    1.3856    0.8000    0.0000 C   0  0  0  0  0  0  0  0  0  0  0  0
    1.3856    2.4000    0.0000 C   0  0  0  0  0  0  0  0  0  0  0  0
    2.7713    3.2000    0.0000 C   0  0  0  0  0  0  0  0  0  0  0  0
    2.7713    0.0000    0.0000 C   0  0  0  0  0  0  0  0  0  0  0  0
    2.7713   -1.6000    0.0000 C   0  0  0  0  0  0  0  0  0  0  0  0
    4.1569   -2.4000    0.0000 C   0  0  0  0  0  0  0  0  0  0  0  0
    5.5426   -1.6000    0.0000 C   0  0  0  0  0  0  0  0  0  0  0  0
    5.5426    0.0000    0.0000 C   0  0  0  0  0  0  0  0  0  0  0  0
    4.1569    0.8000    0.0000 C   0  0  0  0  0  0  0  0  0  0  0  0
  1  2  1  0  0  0  0
  1  7  1  0  0  0  0
  2  3  1  0  0  0  0
  3  4  1  0  0  0  0
  4  5  1  0  0  0  0
  4  6  1  0  0  0  0
  7  8  1  0  0  0  0
  7 12  2  0  0  0  0
  8  9  2  0  0  0  0
  9 10  1  0  0  0  0
 10 11  2  0  0  0  0
 10 13  1  0  0  0  0
 11 12  1  0  0  0  0
 13 14  1  0  0  0  0
 13 20  2  0  0  0  0
 14 15  1  0  0  0  0
 14 19  2  0  0  0  0
 15 16  2  0  0  0  0
 16 17  1  0  0  0  0
 17 18  2  0  0  0  0
 18 19  1  0  0  0  0
 20 21  1  0  0  0  0
 20 23  1  0  0  0  0
 21 22  1  0  0  0  0
 23 24  1  0  0  0  0
 23 28  2  0  0  0  0
 24 25  2  0  0  0  0
 25 26  1  0  0  0  0
 26 27  2  0  0  0  0
 27 28  1  0  0  0  0
M  END
> <Acceptable>
false

> <IC50>
1.58

$$$$

Generated by Molecular Materials Informatics

 28 30  0  0  0  0  0  0  0  0999 V2000
    5.5426   -3.2000    0.0000 O   0  0  0  0  0  0  0  0  0  0  0  0
    9.6995   -2.4000    0.0000 N   0  0  0  0  0  0  0  0  0  0  0  0
    0.0000    0.0000    0.0000 C   0  0  0  0  0  0  0  0  0  0  0  0
   -1.3856   -0.8000    0.0000 C   0  0  0  0  0  0  0  0  0  0  0  0
    1.3856   -0.8000    0.0000 C   0  0  0  0  0  0  0  0  0  0  0  0
   -2.7713    0.0000    0.0000 C   0  0  0  0  0  0  0  0  0  0  0  0
    0.0000    1.6000    0.0000 C   0  0  0  0  0  0  0  0  0  0  0  0
   -1.3856   -2.4000    0.0000 C   0  0  0  0  0  0  0  0  0  0  0  0
    2.7713    0.0000    0.0000 C   0  0  0  0  0  0  0  0  0  0  0  0
    1.3856   -2.4000    0.0000 C   0  0  0  0  0  0  0  0  0  0  0  0
   -4.1569   -0.8000    0.0000 C   0  0  0  0  0  0  0  0  0  0  0  0
    4.1569   -2.4000    0.0000 C   0  0  0  0  0  0  0  0  0  0  0  0
    4.1569   -0.8000    0.0000 C   0  0  0  0  0  0  0  0  0  0  0  0
    2.7713   -3.2000    0.0000 C   0  0  0  0  0  0  0  0  0  0  0  0
   -1.3856    2.4000    0.0000 C   0  0  0  0  0  0  0  0  0  0  0  0
    1.3856    2.4000    0.0000 C   0  0  0  0  0  0  0  0  0  0  0  0
    0.0000   -3.2000    0.0000 C   0  0  0  0  0  0  0  0  0  0  0  0
   -2.7713   -3.2000    0.0000 C   0  0  0  0  0  0  0  0  0  0  0  0
    8.3138   -3.2000    0.0000 C   0  0  0  0  0  0  0  0  0  0  0  0
    6.9282   -2.4000    0.0000 C   0  0  0  0  0  0  0  0  0  0  0  0
   -1.3856    4.0000    0.0000 C   0  0  0  0  0  0  0  0  0  0  0  0
    1.3856    4.0000    0.0000 C   0  0  0  0  0  0  0  0  0  0  0  0
    0.0000   -4.8000    0.0000 C   0  0  0  0  0  0  0  0  0  0  0  0
   -2.7713   -4.8000    0.0000 C   0  0  0  0  0  0  0  0  0  0  0  0
    0.0000    4.8000    0.0000 C   0  0  0  0  0  0  0  0  0  0  0  0
   -1.3856   -5.6000    0.0000 C   0  0  0  0  0  0  0  0  0  0  0  0
    9.6995   -0.8000    0.0000 C   0  0  0  0  0  0  0  0  0  0  0  0
   11.0851   -3.2000    0.0000 C   0  0  0  0  0  0  0  0  0  0  0  0
  1 12  1  0  0  0  0
  1 20  1  0  0  0  0
  2 19  1  0  0  0  0
  2 27  1  0  0  0  0
  2 28  1  0  0  0  0
  3  4  2  0  0  0  0
  3  5  1  0  0  0  0
  3  7  1  0  0  0  0
  4  6  1  0  0  0  0
  4  8  1  0  0  0  0
  5  9  2  0  0  0  0
  5 10  1  0  0  0  0
  6 11  1  0  0  0  0
  7 15  2  0  0  0  0
  7 16  1  0  0  0  0
  8 17  2  0  0  0  0
  8 18  1  0  0  0  0
  9 13  1  0  0  0  0
 10 14  2  0  0  0  0
 12 13  2  0  0  0  0
 12 14  1  0  0  0  0
 15 21  1  0  0  0  0
 16 22  2  0  0  0  0
 17 23  1  0  0  0  0
 18 24  2  0  0  0  0
 19 20  1  0  0  0  0
 21 25  2  0  0  0  0
 22 25  1  0  0  0  0
 23 26  2  0  0  0  0
 24 26  1  0  0  0  0
M  END
> <Acceptable>
false

> <IC50>
0.1

$$$$

Generated by Molecular Materials Informatics

 28 29  0  0  0  0  0  0  0  0999 V2000
   -1.3856    0.8000    0.0000 S   0  0  0  0  0  0  0  0  0  0  0  0
   -2.1856   -0.5856    0.0000 O   0  0  0  0  0  0  0  0  0  0  0  0
   -0.5856    2.1856    0.0000 O   0  0  0  0  0  0  0  0  0  0  0  0
   -2.7713    1.6000    0.0000 N   0  0  0  0  0  0  0  0  0  0  0  0
    0.0000    0.0000    0.0000 C   0  0  0  0  0  0  0  0  0  0  0  0
    1.3856    0.8000    0.0000 C   0  0  0  0  0  0  0  0  0  0  0  0
    2.7713    0.0000    0.0000 C   0  0  0  0  0  0  0  0  0  0  0  0
    2.7713   -1.6000    0.0000 C   0  0  0  0  0  0  0  0  0  0  0  0
    1.3856   -2.4000    0.0000 C   0  0  0  0  0  0  0  0  0  0  0  0
    0.0000   -1.6000    0.0000 C   0  0  0  0  0  0  0  0  0  0  0  0
   -1.3856   -2.4000    0.0000 O   0  0  0  0  0  0  0  0  0  0  0  0
   -1.3856   -4.0000    0.0000 C   0  0  0  0  0  0  0  0  0  0  0  0
    4.1569    0.8000    0.0000 C   0  0  0  0  0  0  0  0  0  0  0  0
    5.5426    0.0000    0.0000 C   0  0  0  0  0  0  0  0  0  0  0  0
    6.9282    0.8000    0.0000 N   0  0  0  0  0  0  0  0  0  0  0  0
    8.3138    0.0000    0.0000 C   0  0  0  0  0  0  0  0  0  0  0  0
    9.6995    0.8000    0.0000 C   0  0  0  0  0  0  0  0  0  0  0  0
   11.0851    0.0000    0.0000 O   0  0  0  0  0  0  0  0  0  0  0  0
   12.4708    0.8000    0.0000 C   0  0  0  0  0  0  0  0  0  0  0  0
   12.4708    2.4000    0.0000 C   0  0  0  0  0  0  0  0  0  0  0  0
   13.8564    3.2000    0.0000 C   0  0  0  0  0  0  0  0  0  0  0  0
   15.2420    2.4000    0.0000 C   0  0  0  0  0  0  0  0  0  0  0  0
   15.2420    0.8000    0.0000 C   0  0  0  0  0  0  0  0  0  0  0  0
   13.8564    0.0000    0.0000 C   0  0  0  0  0  0  0  0  0  0  0  0
   13.8564   -1.6000    0.0000 O   0  0  0  0  0  0  0  0  0  0  0  0
   15.2420   -2.4000    0.0000 C   0  0  0  0  0  0  0  0  0  0  0  0
   15.2420   -4.0000    0.0000 C   0  0  0  0  0  0  0  0  0  0  0  0
    5.5426   -1.6000    0.0000 C   0  0  0  0  0  0  0  0  0  0  0  0
  1  2  2  0  0  0  0
  1  3  2  0  0  0  0
  1  4  1  0  0  0  0
  1  5  1  0  0  0  0
  5  6  1  0  0  0  0
  5 10  2  0  0  0  0
  6  7  2  0  0  0  0
  7  8  1  0  0  0  0
  7 13  1  0  0  0  0
  8  9  2  0  0  0  0
  9 10  1  0  0  0  0
 10 11  1  0  0  0  0
 11 12  1  0  0  0  0
 13 14  1  0  0  0  0
 14 15  1  0  0  0  0
 14 28  1  6  0  0  0
 15 16  1  0  0  0  0
 16 17  1  0  0  0  0
 17 18  1  0  0  0  0
 18 19  1  0  0  0  0
 19 20  1  0  0  0  0
 19 24  2  0  0  0  0
 20 21  2  0  0  0  0
 21 22  1  0  0  0  0
 22 23  2  0  0  0  0
 23 24  1  0  0  0  0
 24 25  1  0  0  0  0
 25 26  1  0  0  0  0
 26 27  1  0  0  0  0
M  END
> <Acceptable>
true

> <IC50>
104.8

$$$$

Generated by Molecular Materials Informatics

 16 16  0  0  0  0  0  0  0  0999 V2000
   -5.5426    0.0000    0.0000 O   0  0  0  0  0  0  0  0  0  0  0  0
    4.1569   -0.8000    0.0000 N   0  0  0  0  0  0  0  0  0  0  0  0
    0.0000    0.0000    0.0000 C   0  0  0  0  0  0  0  0  0  0  0  0
    1.3856   -0.8000    0.0000 C   0  0  0  0  0  0  0  0  0  0  0  0
    2.7713    0.0000    0.0000 C   0  0  0  0  0  0  0  0  0  0  0  0
    0.0000    1.6000    0.0000 C   0  0  0  0  0  0  0  0  0  0  0  0
   -1.3856   -0.8000    0.0000 C   0  0  0  0  0  0  0  0  0  0  0  0
    1.3856   -2.4000    0.0000 C   0  0  0  0  0  0  0  0  0  0  0  0
    1.3856    2.4000    0.0000 C   0  0  0  0  0  0  0  0  0  0  0  0
   -2.7713    0.0000    0.0000 C   0  0  0  0  0  0  0  0  0  0  0  0
   -1.3856   -2.4000    0.0000 C   0  0  0  0  0  0  0  0  0  0  0  0
    4.1569   -2.4000    0.0000 C   0  0  0  0  0  0  0  0  0  0  0  0
    5.5426    0.0000    0.0000 C   0  0  0  0  0  0  0  0  0  0  0  0
   -4.1569   -0.8000    0.0000 C   0  0  0  0  0  0  0  0  0  0  0  0
   -2.7713   -3.2000    0.0000 C   0  0  0  0  0  0  0  0  0  0  0  0
   -4.1569   -2.4000    0.0000 C   0  0  0  0  0  0  0  0  0  0  0  0
  1 14  1  0  0  0  0
  2  5  1  0  0  0  0
  2 12  1  0  0  0  0
  2 13  1  0  0  0  0
  3  4  1  0  0  0  0
  3  6  1  0  0  0  0
  3  7  1  6  0  0  0
  4  5  1  0  0  0  0
  4  8  1  6  0  0  0
  6  9  1  0  0  0  0
  7 10  2  0  0  0  0
  7 11  1  0  0  0  0
 10 14  1  0  0  0  0
 11 15  2  0  0  0  0
 14 16  2  0  0  0  0
 15 16  1  0  0  0  0
M  END
> <Acceptable>
false

> <IC50>
12.8

$$$$

Generated by Molecular Materials Informatics

 21 25  0  0  0  0  0  0  0  0999 V2000
    4.2372   -0.4031    0.0000 N   0  0  0  0  0  0  0  0  0  0  0  0
    3.1297   -1.6159    0.0000 C   0  0  0  0  0  0  0  0  0  0  0  0
    1.4964   -0.5663    0.0000 C   0  0  0  0  0  0  0  0  0  0  0  0
    2.4579    1.0569    0.0000 C   0  0  0  0  0  0  0  0  0  0  0  0
    3.6756    1.4986    0.0000 N   0  0  0  0  0  0  0  0  0  0  0  0
    2.1863    2.0705    0.0000 C   0  0  0  0  0  0  0  0  0  0  0  0
    1.2822    0.5073    0.0000 C   0  0  0  0  0  0  0  0  0  0  0  0
    2.8438   -0.5337    0.0000 C   0  0  0  0  0  0  0  0  0  0  0  0
    0.0000    0.0000    0.0000 C   0  0  0  0  0  0  0  0  0  0  0  0
   -0.9501    1.2874    0.0000 C   0  0  0  0  0  0  0  0  0  0  0  0
   -2.4681    0.7816    0.0000 C   0  0  0  0  0  0  0  0  0  0  0  0
   -2.4561   -0.8184    0.0000 C   0  0  0  0  0  0  0  0  0  0  0  0
   -0.9307   -1.3014    0.0000 C   0  0  0  0  0  0  0  0  0  0  0  0
    5.2755    1.4836    0.0000 C   0  0  0  0  0  0  0  0  0  0  0  0
    6.0885    2.8617    0.0000 C   0  0  0  0  0  0  0  0  0  0  0  0
    7.4815    3.6487    0.0000 C   0  0  0  0  0  0  0  0  0  0  0  0
    6.1034    4.4616    0.0000 C   0  0  0  0  0  0  0  0  0  0  0  0
    5.6694    0.3102    0.0000 C   0  0  0  0  0  0  0  0  0  0  0  0
    7.0033   -0.5735    0.0000 C   0  0  0  0  0  0  0  0  0  0  0  0
    7.7166   -2.0057    0.0000 C   0  0  0  0  0  0  0  0  0  0  0  0
    8.6002   -0.6718    0.0000 C   0  0  0  0  0  0  0  0  0  0  0  0
  1  2  1  0  0  0  0
  1  8  1  0  0  0  0
  1 18  1  6  0  0  0
  2  3  1  0  0  0  0
  3  4  1  1  0  0  0
  3  9  1  0  0  0  0
  4  5  1  0  0  0  0
  5  6  1  0  0  0  0
  5 14  1  6  0  0  0
  6  7  1  0  0  0  0
  7  8  1  6  0  0  0
  7  9  1  0  0  0  0
  9 10  1  0  0  0  0
  9 13  1  6  0  0  0
 10 11  1  0  0  0  0
 11 12  1  0  0  0  0
 12 13  1  0  0  0  0
 14 15  1  0  0  0  0
 15 16  1  0  0  0  0
 15 17  1  0  0  0  0
 16 17  1  0  0  0  0
 18 19  1  0  0  0  0
 19 20  1  0  0  0  0
 19 21  1  0  0  0  0
 20 21  1  0  0  0  0
M  END
> <Acceptable>
false

> <IC50>
2.5

$$$$

Generated by Molecular Materials Informatics

 17 18  0  0  0  0  0  0  0  0999 V2000
   -2.5405   -1.2944    0.0000 O   0  0  0  0  0  0  0  0  0  0  0  0
   -5.3566    1.7405    0.0000 O   0  0  0  0  0  0  0  0  0  0  0  0
   -5.1893   -3.3317    0.0000 O   0  0  0  0  0  0  0  0  0  0  0  0
    0.0000    2.7713    0.0000 O   0  0  0  0  0  0  0  0  0  0  0  0
    4.8000    0.0000    0.0000 O   0  0  0  0  0  0  0  0  0  0  0  0
    0.0000    0.0000    0.0000 N   0  0  0  0  0  0  0  0  0  0  0  0
    2.4000    1.3856    0.0000 N   0  0  0  0  0  0  0  0  0  0  0  0
   -4.0621    0.8000    0.0000 C   0  0  0  0  0  0  0  0  0  0  0  0
   -1.6000    0.0000    0.0000 C   0  0  0  0  0  0  0  0  0  0  0  0
   -2.5405    1.2944    0.0000 C   0  0  0  0  0  0  0  0  0  0  0  0
   -4.0621   -0.8000    0.0000 C   0  0  0  0  0  0  0  0  0  0  0  0
   -5.3566   -1.7405    0.0000 C   0  0  0  0  0  0  0  0  0  0  0  0
    0.8000   -1.3856    0.0000 C   0  0  0  0  0  0  0  0  0  0  0  0
    0.8000    1.3856    0.0000 C   0  0  0  0  0  0  0  0  0  0  0  0
    2.4000   -1.3856    0.0000 C   0  0  0  0  0  0  0  0  0  0  0  0
    3.2000    0.0000    0.0000 C   0  0  0  0  0  0  0  0  0  0  0  0
    3.2000   -2.7713    0.0000 C   0  0  0  0  0  0  0  0  0  0  0  0
  1  9  1  0  0  0  0
  1 11  1  0  0  0  0
  8  2  1  6  0  0  0
  3 12  1  0  0  0  0
  4 14  2  0  0  0  0
  5 16  2  0  0  0  0
  9  6  1  1  0  0  0
  6 13  1  0  0  0  0
  6 14  1  0  0  0  0
  7 14  1  0  0  0  0
  7 16  1  0  0  0  0
  8 10  1  0  0  0  0
  8 11  1  0  0  0  0
  9 10  1  0  0  0  0
 11 12  1  1  0  0  0
 13 15  2  0  0  0  0
 15 16  1  0  0  0  0
 15 17  1  0  0  0  0
M  END
> <Acceptable>
true

> <IC50>
N/A

$$$$

Generated by Molecular Materials Informatics

 39 44  0  0  0  0  0  0  0  0999 V2000
   -7.2874    0.3034    0.0000 O   0  0  0  0  0  0  0  0  0  0  0  0
   -8.8524    0.6360    0.0000 C   0  0  0  0  0  0  0  0  0  0  0  0
   -9.9231   -0.5530    0.0000 O   0  0  0  0  0  0  0  0  0  0  0  0
   -9.3469    2.1577    0.0000 C   0  0  0  0  0  0  0  0  0  0  0  0
  -10.9119    2.4904    0.0000 C   0  0  0  0  0  0  0  0  0  0  0  0
  -11.4063    4.0121    0.0000 C   0  0  0  0  0  0  0  0  0  0  0  0
  -10.3357    5.2011    0.0000 C   0  0  0  0  0  0  0  0  0  0  0  0
   -8.7707    4.8685    0.0000 C   0  0  0  0  0  0  0  0  0  0  0  0
   -8.2763    3.3468    0.0000 C   0  0  0  0  0  0  0  0  0  0  0  0
   -6.7112    3.0141    0.0000 C   0  0  0  0  0  0  0  0  0  0  0  0
   -5.6406    4.2031    0.0000 C   0  0  0  0  0  0  0  0  0  0  0  0
   -4.0756    3.8705    0.0000 C   0  0  0  0  0  0  0  0  0  0  0  0
   -3.5812    2.3488    0.0000 C   0  0  0  0  0  0  0  0  0  0  0  0
   -4.6518    1.1597    0.0000 C   0  0  0  0  0  0  0  0  0  0  0  0
   -6.2168    1.4924    0.0000 C   0  0  0  0  0  0  0  0  0  0  0  0
   -2.0161    2.0161    0.0000 C   0  0  0  0  0  0  0  0  0  0  0  0
   -1.5217    0.4944    0.0000 N   0  0  0  0  0  0  0  0  0  0  0  0
    0.0000    0.0000    0.0000 C   0  0  0  0  0  0  0  0  0  0  0  0
    1.3856    0.8000    0.0000 C   0  0  0  0  0  0  0  0  0  0  0  0
    2.7713    0.0000    0.0000 C   0  0  0  0  0  0  0  0  0  0  0  0
    2.7713   -1.6000    0.0000 C   0  0  0  0  0  0  0  0  0  0  0  0
    1.3856   -2.4000    0.0000 C   0  0  0  0  0  0  0  0  0  0  0  0
    0.0000   -1.6000    0.0000 C   0  0  0  0  0  0  0  0  0  0  0  0
   -1.5217   -2.0944    0.0000 N   0  0  0  0  0  0  0  0  0  0  0  0
   -2.4621   -0.8000    0.0000 C   0  0  0  0  0  0  0  0  0  0  0  0
   -4.0621   -0.8000    0.0000 C   0  0  0  0  0  0  0  0  0  0  0  0
   -4.8621   -2.1856    0.0000 C   0  0  0  0  0  0  0  0  0  0  0  0
   -6.4621   -2.1856    0.0000 C   0  0  0  0  0  0  0  0  0  0  0  0
    4.1569    0.8000    0.0000 C   0  0  0  0  0  0  0  0  0  0  0  0
    4.3242    2.3912    0.0000 N   0  0  0  0  0  0  0  0  0  0  0  0
    5.8892    2.7239    0.0000 C   0  0  0  0  0  0  0  0  0  0  0  0
    6.6892    1.3383    0.0000 C   0  0  0  0  0  0  0  0  0  0  0  0
    5.6186    0.1492    0.0000 N   0  0  0  0  0  0  0  0  0  0  0  0
    5.9513   -1.4158    0.0000 C   0  0  0  0  0  0  0  0  0  0  0  0
    8.2892    1.3383    0.0000 C   0  0  0  0  0  0  0  0  0  0  0  0
    9.0892    2.7239    0.0000 C   0  0  0  0  0  0  0  0  0  0  0  0
    8.2892    4.1095    0.0000 C   0  0  0  0  0  0  0  0  0  0  0  0
    6.6892    4.1095    0.0000 C   0  0  0  0  0  0  0  0  0  0  0  0
    5.8892    5.4952    0.0000 C   0  0  0  0  0  0  0  0  0  0  0  0
  1  2  2  0  0  0  0
  2  3  1  0  0  0  0
  2  4  1  0  0  0  0
  4  5  1  0  0  0  0
  4  9  2  0  0  0  0
  5  6  2  0  0  0  0
  6  7  1  0  0  0  0
  7  8  2  0  0  0  0
  8  9  1  0  0  0  0
  9 10  1  0  0  0  0
 10 11  1  0  0  0  0
 10 15  2  0  0  0  0
 11 12  2  0  0  0  0
 12 13  1  0  0  0  0
 13 14  2  0  0  0  0
 13 16  1  0  0  0  0
 14 15  1  0  0  0  0
 16 17  1  0  0  0  0
 17 18  1  0  0  0  0
 17 25  1  0  0  0  0
 18 19  1  0  0  0  0
 18 23  2  0  0  0  0
 19 20  2  0  0  0  0
 20 21  1  0  0  0  0
 20 29  1  0  0  0  0
 21 22  2  0  0  0  0
 22 23  1  0  0  0  0
 23 24  1  0  0  0  0
 24 25  2  0  0  0  0
 25 26  1  0  0  0  0
 26 27  1  0  0  0  0
 27 28  1  0  0  0  0
 29 30  2  0  0  0  0
 29 33  1  0  0  0  0
 30 31  1  0  0  0  0
 31 32  1  0  0  0  0
 31 38  2  0  0  0  0
 32 33  1  0  0  0  0
 32 35  2  0  0  0  0
 33 34  1  0  0  0  0
 35 36  1  0  0  0  0
 36 37  2  0  0  0  0
 37 38  1  0  0  0  0
 38 39  1  0  0  0  0
M  END
> <Acceptable>
true

> <IC50>
N/A

$$$$

Generated by Molecular Materials Informatics

 14 15  0  0  0  0  0  0  0  0999 V2000
   -4.1569    0.8000    0.0000 O   0  0  0  0  0  0  0  0  0  0  0  0
   -2.7713    0.0000    0.0000 C   0  0  0  0  0  0  0  0  0  0  0  0
   -1.3856    0.8000    0.0000 N   0  3  0  0  0  0  0  0  0  0  0  0
   -1.0530    2.3650    0.0000 C   0  0  0  0  0  0  0  0  0  0  0  0
    0.5383    2.5323    0.0000 N   0  0  0  0  0  0  0  0  0  0  0  0
    1.1890    1.0706    0.0000 C   0  0  0  0  0  0  0  0  0  0  0  0
    0.0000    0.0000    0.0000 C   0  0  0  0  0  0  0  0  0  0  0  0
    0.0000   -1.6000    0.0000 N   0  0  0  0  0  0  0  0  0  0  0  0
   -1.3856   -2.4000    0.0000 N   0  0  0  0  0  0  0  0  0  0  0  0
   -2.7713   -1.6000    0.0000 N   0  3  0  0  0  0  0  0  0  0  0  0
   -4.1569   -2.4000    0.0000 C   0  0  0  0  0  0  0  0  0  0  0  0
    2.7541    0.7379    0.0000 C   0  0  0  0  0  0  0  0  0  0  0  0
    3.2485   -0.7837    0.0000 O   0  0  0  0  0  0  0  0  0  0  0  0
    3.8247    1.9270    0.0000 N   0  0  0  0  0  0  0  0  0  0  0  0
  1  2  2  0  0  0  0
  2  3  1  0  0  0  0
  2 10  1  0  0  0  0
  3  4  2  0  0  0  0
  3  7  1  0  0  0  0
  4  5  1  0  0  0  0
  5  6  2  0  0  0  0
  6  7  1  0  0  0  0
  6 12  1  0  0  0  0
  7  8  2  0  0  0  0
  8  9  1  0  0  0  0
  9 10  2  0  0  0  0
 10 11  1  0  0  0  0
 12 13  2  0  0  0  0
 12 14  1  0  0  0  0
M  CHG  2   3   1  10   1
M  END
> <Acceptable>
true

> <IC50>
N/A

$$$$

Generated by Molecular Materials Informatics

 28 31  0  0  0  0  0  0  0  0999 V2000
   -9.8667    2.4088    0.0000 O   0  0  0  0  0  0  0  0  0  0  0  0
   -8.3138    6.4000    0.0000 O   0  0  0  0  0  0  0  0  0  0  0  0
    4.1569    2.4000    0.0000 O   0  0  0  0  0  0  0  0  0  0  0  0
    4.1569   -0.8000    0.0000 O   0  0  0  0  0  0  0  0  0  0  0  0
   -6.9282    4.0000    0.0000 N   0  0  0  0  0  0  0  0  0  0  0  0
   -4.1569    2.4000    0.0000 N   0  0  0  0  0  0  0  0  0  0  0  0
   -1.3856    2.4000    0.0000 N   0  0  0  0  0  0  0  0  0  0  0  0
   -2.7713    0.0000    0.0000 N   0  0  0  0  0  0  0  0  0  0  0  0
   -1.3856   -2.4000    0.0000 N   0  0  0  0  0  0  0  0  0  0  0  0
   -9.6995    4.0000    0.0000 C   0  0  0  0  0  0  0  0  0  0  0  0
   -6.9282    2.4000    0.0000 C   0  0  0  0  0  0  0  0  0  0  0  0
   -5.5426    4.8000    0.0000 C   0  0  0  0  0  0  0  0  0  0  0  0
   -5.5426    1.6000    0.0000 C   0  0  0  0  0  0  0  0  0  0  0  0
   -4.1569    4.0000    0.0000 C   0  0  0  0  0  0  0  0  0  0  0  0
  -11.1612    4.6508    0.0000 C   0  0  0  0  0  0  0  0  0  0  0  0
   -8.3138    4.8000    0.0000 C   0  0  0  0  0  0  0  0  0  0  0  0
  -12.2318    3.4617    0.0000 C   0  0  0  0  0  0  0  0  0  0  0  0
  -11.4318    2.0761    0.0000 C   0  0  0  0  0  0  0  0  0  0  0  0
   -2.7713    1.6000    0.0000 C   0  0  0  0  0  0  0  0  0  0  0  0
    0.0000    1.6000    0.0000 C   0  0  0  0  0  0  0  0  0  0  0  0
    0.0000    0.0000    0.0000 C   0  0  0  0  0  0  0  0  0  0  0  0
   -1.3856   -0.8000    0.0000 C   0  0  0  0  0  0  0  0  0  0  0  0
    1.3856    2.4000    0.0000 C   0  0  0  0  0  0  0  0  0  0  0  0
    1.3856   -0.8000    0.0000 C   0  0  0  0  0  0  0  0  0  0  0  0
    2.7713    1.6000    0.0000 C   0  0  0  0  0  0  0  0  0  0  0  0
    2.7713    0.0000    0.0000 C   0  0  0  0  0  0  0  0  0  0  0  0
    4.1569    4.0000    0.0000 C   0  0  0  0  0  0  0  0  0  0  0  0
    4.1569   -2.4000    0.0000 C   0  0  0  0  0  0  0  0  0  0  0  0
  1 10  1  0  0  0  0
  1 18  1  0  0  0  0
  2 16  2  0  0  0  0
  3 25  1  0  0  0  0
  3 27  1  0  0  0  0
  4 26  1  0  0  0  0
  4 28  1  0  0  0  0
  5 11  1  0  0  0  0
  5 12  1  0  0  0  0
  5 16  1  0  0  0  0
  6 13  1  0  0  0  0
  6 14  1  0  0  0  0
  6 19  1  0  0  0  0
  7 19  1  0  0  0  0
  7 20  2  0  0  0  0
  8 19  2  0  0  0  0
  8 22  1  0  0  0  0
  9 22  1  0  0  0  0
 10 15  1  0  0  0  0
 10 16  1  1  0  0  0
 11 13  1  0  0  0  0
 12 14  1  0  0  0  0
 15 17  1  0  0  0  0
 17 18  1  0  0  0  0
 20 21  1  0  0  0  0
 20 23  1  0  0  0  0
 21 22  2  0  0  0  0
 21 24  1  0  0  0  0
 23 25  2  0  0  0  0
 24 26  2  0  0  0  0
 25 26  1  0  0  0  0
M  END
> <Acceptable>
false

> <IC50>
17.1

$$$$

Generated by Molecular Materials Informatics

 16 16  0  0  0  0  0  0  0  0999 V2000
   -4.1569    0.8000    0.0000 O   0  0  0  0  0  0  0  0  0  0  0  0
   -2.7713    0.0000    0.0000 C   0  0  0  0  0  0  0  0  0  0  0  0
   -2.7713   -1.6000    0.0000 C   0  0  0  0  0  0  0  0  0  0  0  0
   -1.3856   -2.4000    0.0000 C   0  0  0  0  0  0  0  0  0  0  0  0
   -1.3856   -4.0000    0.0000 O   0  0  0  0  0  0  0  0  0  0  0  0
    0.0000   -1.6000    0.0000 C   0  0  0  0  0  0  0  0  0  0  0  0
    0.0000    0.0000    0.0000 C   0  0  0  0  0  0  0  0  0  0  0  0
   -1.3856    0.8000    0.0000 C   0  0  0  0  0  0  0  0  0  0  0  0
    1.3856    0.8000    0.0000 C   0  0  0  0  0  0  0  0  0  0  0  0
    1.3856    2.4000    0.0000 O   0  0  0  0  0  0  0  0  0  0  0  0
    2.7713    0.0000    0.0000 C   0  0  0  0  0  0  0  0  0  0  0  0
    4.1569    0.8000    0.0000 N   0  0  0  0  0  0  0  0  0  0  0  0
    5.5426    0.0000    0.0000 C   0  0  0  0  0  0  0  0  0  0  0  0
    5.5426   -1.6000    0.0000 C   0  0  0  0  0  0  0  0  0  0  0  0
    6.9282    0.8000    0.0000 C   0  0  0  0  0  0  0  0  0  0  0  0
    6.9282   -0.8000    0.0000 C   0  0  0  0  0  0  0  0  0  0  0  0
  1  2  1  0  0  0  0
  2  3  1  0  0  0  0
  2  8  2  0  0  0  0
  3  4  2  0  0  0  0
  4  5  1  0  0  0  0
  4  6  1  0  0  0  0
  6  7  2  0  0  0  0
  7  8  1  0  0  0  0
  7  9  1  0  0  0  0
  9 10  1  6  0  0  0
  9 11  1  0  0  0  0
 11 12  1  0  0  0  0
 12 13  1  0  0  0  0
 13 14  1  0  0  0  0
 13 15  1  0  0  0  0
 13 16  1  0  0  0  0
M  END
> <Acceptable>
true

> <IC50>
N/A

$$$$

Generated by Molecular Materials Informatics

 35 38  0  0  0  0  0  0  0  0999 V2000
    8.8000   -4.1569    0.0000 O   0  0  0  0  0  0  0  0  0  0  0  0
    9.6000   -2.7713    0.0000 C   0  0  0  0  0  0  0  0  0  0  0  0
    8.8000   -1.3856    0.0000 C   0  0  0  0  0  0  0  0  0  0  0  0
    7.2000   -1.3856    0.0000 C   0  0  0  0  0  0  0  0  0  0  0  0
    6.4000    0.0000    0.0000 C   0  0  0  0  0  0  0  0  0  0  0  0
    4.8000    0.0000    0.0000 N   0  0  0  0  0  0  0  0  0  0  0  0
    4.0000   -1.3856    0.0000 C   0  0  0  0  0  0  0  0  0  0  0  0
    2.4000   -1.3856    0.0000 C   0  0  0  0  0  0  0  0  0  0  0  0
    1.6000    0.0000    0.0000 C   0  0  0  0  0  0  0  0  0  0  0  0
    2.4000    1.3856    0.0000 C   0  0  0  0  0  0  0  0  0  0  0  0
    4.0000    1.3856    0.0000 C   0  0  0  0  0  0  0  0  0  0  0  0
    0.0000    0.0000    0.0000 C   0  0  0  0  0  0  0  0  0  0  0  0
    0.0000   -1.6000    0.0000 O   0  0  0  0  0  0  0  0  0  0  0  0
    0.0000    1.6000    0.0000 C   0  0  0  0  0  0  0  0  0  0  0  0
   -1.3856    2.4000    0.0000 C   0  0  0  0  0  0  0  0  0  0  0  0
   -1.3856    4.0000    0.0000 C   0  0  0  0  0  0  0  0  0  0  0  0
    0.0000    4.8000    0.0000 C   0  0  0  0  0  0  0  0  0  0  0  0
    1.3856    4.0000    0.0000 C   0  0  0  0  0  0  0  0  0  0  0  0
    1.3856    2.4000    0.0000 C   0  0  0  0  0  0  0  0  0  0  0  0
   -1.6000    0.0000    0.0000 C   0  0  0  0  0  0  0  0  0  0  0  0
   -2.4000   -1.3856    0.0000 C   0  0  0  0  0  0  0  0  0  0  0  0
   -4.0000   -1.3856    0.0000 C   0  0  0  0  0  0  0  0  0  0  0  0
   -4.8000    0.0000    0.0000 C   0  0  0  0  0  0  0  0  0  0  0  0
   -4.0000    1.3856    0.0000 C   0  0  0  0  0  0  0  0  0  0  0  0
   -2.4000    1.3856    0.0000 C   0  0  0  0  0  0  0  0  0  0  0  0
   11.2000   -2.7713    0.0000 C   0  0  0  0  0  0  0  0  0  0  0  0
   12.0000   -1.3856    0.0000 C   0  0  0  0  0  0  0  0  0  0  0  0
   13.6000   -1.3856    0.0000 C   0  0  0  0  0  0  0  0  0  0  0  0
   14.4000   -2.7713    0.0000 C   0  0  0  0  0  0  0  0  0  0  0  0
   13.6000   -4.1569    0.0000 C   0  0  0  0  0  0  0  0  0  0  0  0
   12.0000   -4.1569    0.0000 C   0  0  0  0  0  0  0  0  0  0  0  0
   16.0000   -2.7713    0.0000 C   0  0  0  0  0  0  0  0  0  0  0  0
   16.8000   -1.3856    0.0000 C   0  0  0  0  0  0  0  0  0  0  0  0
   16.8000   -4.1569    0.0000 C   0  0  0  0  0  0  0  0  0  0  0  0
   17.6000   -2.7713    0.0000 C   0  0  0  0  0  0  0  0  0  0  0  0
  2  1  1  1  0  0  0
  2  3  1  0  0  0  0
  2 26  1  0  0  0  0
  3  4  1  0  0  0  0
  4  5  1  0  0  0  0
  6  5  1  6  0  0  0
  6  7  1  0  0  0  0
  6 11  1  0  0  0  0
  7  8  1  0  0  0  0
  8  9  1  0  0  0  0
  9 10  1  0  0  0  0
  9 12  1  1  0  0  0
 10 11  1  0  0  0  0
 12 13  1  0  0  0  0
 12 14  1  0  0  0  0
 12 20  1  0  0  0  0
 14 15  1  0  0  0  0
 14 19  2  0  0  0  0
 15 16  2  0  0  0  0
 16 17  1  0  0  0  0
 17 18  2  0  0  0  0
 18 19  1  0  0  0  0
 20 21  1  0  0  0  0
 20 25  2  0  0  0  0
 21 22  2  0  0  0  0
 22 23  1  0  0  0  0
 23 24  2  0  0  0  0
 24 25  1  0  0  0  0
 26 27  1  0  0  0  0
 26 31  2  0  0  0  0
 27 28  2  0  0  0  0
 28 29  1  0  0  0  0
 29 30  2  0  0  0  0
 29 32  1  0  0  0  0
 30 31  1  0  0  0  0
 32 33  1  0  0  0  0
 32 34  1  0  0  0  0
 32 35  1  0  0  0  0
M  END
> <Acceptable>
false

> <IC50>
0.0084

$$$$

Generated by Molecular Materials Informatics

 28 31  0  0  0  0  0  0  0  0999 V2000
   -1.3856   -2.4000    0.0000 O   0  0  0  0  0  0  0  0  0  0  0  0
   13.8564    1.6000    0.0000 O   0  0  0  0  0  0  0  0  0  0  0  0
   13.8564    4.8000    0.0000 O   0  0  0  0  0  0  0  0  0  0  0  0
    5.5426    0.0000    0.0000 N   0  0  0  0  0  0  0  0  0  0  0  0
    8.3138    1.6000    0.0000 C   0  0  0  0  0  0  0  0  0  0  0  0
    8.3138    0.0000    0.0000 C   0  0  0  0  0  0  0  0  0  0  0  0
    6.9282    2.4000    0.0000 C   0  0  0  0  0  0  0  0  0  0  0  0
    6.9282   -0.8000    0.0000 C   0  0  0  0  0  0  0  0  0  0  0  0
    5.5426    1.6000    0.0000 C   0  0  0  0  0  0  0  0  0  0  0  0
    4.1569   -0.8000    0.0000 C   0  0  0  0  0  0  0  0  0  0  0  0
    2.7713    0.0000    0.0000 C   0  0  0  0  0  0  0  0  0  0  0  0
    1.3856   -0.8000    0.0000 C   0  0  0  0  0  0  0  0  0  0  0  0
    9.6995    2.4000    0.0000 C   0  0  0  0  0  0  0  0  0  0  0  0
    1.3856   -2.4000    0.0000 C   0  0  0  0  0  0  0  0  0  0  0  0
    0.0000    0.0000    0.0000 C   0  0  0  0  0  0  0  0  0  0  0  0
    0.0000   -3.2000    0.0000 C   0  0  0  0  0  0  0  0  0  0  0  0
   -1.3856   -0.8000    0.0000 C   0  0  0  0  0  0  0  0  0  0  0  0
   11.0851    1.6000    0.0000 C   0  0  0  0  0  0  0  0  0  0  0  0
    9.6995    4.0000    0.0000 C   0  0  0  0  0  0  0  0  0  0  0  0
    0.0000    1.6000    0.0000 C   0  0  0  0  0  0  0  0  0  0  0  0
   12.4708    2.4000    0.0000 C   0  0  0  0  0  0  0  0  0  0  0  0
   -2.7713    0.0000    0.0000 C   0  0  0  0  0  0  0  0  0  0  0  0
   11.0851    4.8000    0.0000 C   0  0  0  0  0  0  0  0  0  0  0  0
   -1.3856    2.4000    0.0000 C   0  0  0  0  0  0  0  0  0  0  0  0
   12.4708    4.0000    0.0000 C   0  0  0  0  0  0  0  0  0  0  0  0
   -2.7713    1.6000    0.0000 C   0  0  0  0  0  0  0  0  0  0  0  0
   13.8564    0.0000    0.0000 C   0  0  0  0  0  0  0  0  0  0  0  0
   13.8564    6.4000    0.0000 C   0  0  0  0  0  0  0  0  0  0  0  0
  1 16  1  0  0  0  0
  1 17  1  0  0  0  0
  2 21  1  0  0  0  0
  2 27  1  0  0  0  0
  3 25  1  0  0  0  0
  3 28  1  0  0  0  0
  4  8  1  0  0  0  0
  4  9  1  0  0  0  0
  4 10  1  1  0  0  0
  5  6  1  0  0  0  0
  5  7  1  0  0  0  0
  5 13  1  6  0  0  0
  6  8  1  0  0  0  0
  7  9  1  0  0  0  0
 10 11  1  0  0  0  0
 12 11  1  1  0  0  0
 12 14  1  0  0  0  0
 12 15  1  0  0  0  0
 13 18  2  0  0  0  0
 13 19  1  0  0  0  0
 14 16  1  0  0  0  0
 15 17  2  0  0  0  0
 15 20  1  0  0  0  0
 17 22  1  0  0  0  0
 18 21  1  0  0  0  0
 19 23  2  0  0  0  0
 20 24  2  0  0  0  0
 21 25  2  0  0  0  0
 22 26  2  0  0  0  0
 23 25  1  0  0  0  0
 24 26  1  0  0  0  0
M  END
> <Acceptable>
false

> <IC50>
0.25

$$$$

Generated by Molecular Materials Informatics

 21 22  0  0  0  0  0  0  0  0999 V2000
    4.1569    0.8000    0.0000 N   0  0  0  0  0  0  0  0  0  0  0  0
    2.7713    0.0000    0.0000 C   0  0  0  0  0  0  0  0  0  0  0  0
    2.7713   -1.6000    0.0000 C   0  0  0  0  0  0  0  0  0  0  0  0
    1.3856    0.8000    0.0000 C   0  0  0  0  0  0  0  0  0  0  0  0
    0.0000    0.0000    0.0000 C   0  0  0  0  0  0  0  0  0  0  0  0
    0.0000   -1.6000    0.0000 C   0  0  0  0  0  0  0  0  0  0  0  0
   -1.3856   -2.4000    0.0000 C   0  0  0  0  0  0  0  0  0  0  0  0
   -1.3856   -4.0000    0.0000 C   0  0  0  0  0  0  0  0  0  0  0  0
    0.0000   -4.8000    0.0000 C   0  0  0  0  0  0  0  0  0  0  0  0
    1.3856   -4.0000    0.0000 C   0  0  0  0  0  0  0  0  0  0  0  0
    1.3856   -2.4000    0.0000 C   0  0  0  0  0  0  0  0  0  0  0  0
   -1.3856    0.8000    0.0000 C   0  0  0  0  0  0  0  0  0  0  0  0
   -1.3856    2.4000    0.0000 C   0  0  0  0  0  0  0  0  0  0  0  0
   -2.7713    3.2000    0.0000 C   0  0  0  0  0  0  0  0  0  0  0  0
   -4.1569    2.4000    0.0000 C   0  0  0  0  0  0  0  0  0  0  0  0
   -4.1569    0.8000    0.0000 C   0  0  0  0  0  0  0  0  0  0  0  0
   -2.7713    0.0000    0.0000 C   0  0  0  0  0  0  0  0  0  0  0  0
    5.5426    0.0000    0.0000 C   0  0  0  0  0  0  0  0  0  0  0  0
    5.5426   -1.6000    0.0000 C   0  0  0  0  0  0  0  0  0  0  0  0
    6.9282    0.8000    0.0000 C   0  0  0  0  0  0  0  0  0  0  0  0
    6.9282   -0.8000    0.0000 C   0  0  0  0  0  0  0  0  0  0  0  0
  1  2  1  0  0  0  0
  1 18  1  0  0  0  0
  2  3  1  6  0  0  0
  2  4  1  0  0  0  0
  4  5  1  0  0  0  0
  5  6  1  0  0  0  0
  5 12  1  0  0  0  0
  6  7  1  0  0  0  0
  6 11  2  0  0  0  0
  7  8  2  0  0  0  0
  8  9  1  0  0  0  0
  9 10  2  0  0  0  0
 10 11  1  0  0  0  0
 12 13  1  0  0  0  0
 12 17  2  0  0  0  0
 13 14  2  0  0  0  0
 14 15  1  0  0  0  0
 15 16  2  0  0  0  0
 16 17  1  0  0  0  0
 18 19  1  0  0  0  0
 18 20  1  0  0  0  0
 18 21  1  0  0  0  0
M  END
> <Acceptable>
false

> <IC50>
1.51

$$$$

Generated by Molecular Materials Informatics

 22 25  0  0  0  0  0  0  0  0999 V2000
   -4.8000    0.0000    0.0000 O   0  0  0  0  0  0  0  0  0  0  0  0
   -3.2000    0.0000    0.0000 C   0  0  0  0  0  0  0  0  0  0  0  0
   -2.4000   -1.3856    0.0000 C   0  0  0  0  0  0  0  0  0  0  0  0
   -0.8000   -1.3856    0.0000 C   0  0  0  0  0  0  0  0  0  0  0  0
    0.0000    0.0000    0.0000 C   0  0  0  0  0  0  0  0  0  0  0  0
    0.8000   -1.3856    0.0000 C   0  0  0  0  0  0  0  0  0  0  0  0
   -0.8000    1.3856    0.0000 C   0  0  0  0  0  0  0  0  0  0  0  0
   -2.4000    1.3856    0.0000 C   0  0  0  0  0  0  0  0  0  0  0  0
    0.0000    2.7713    0.0000 C   0  0  0  0  0  0  0  0  0  0  0  0
    1.6000    2.7713    0.0000 C   0  0  0  0  0  0  0  0  0  0  0  0
    2.4000    1.3856    0.0000 C   0  0  0  0  0  0  0  0  0  0  0  0
    4.0000    1.3856    0.0000 C   0  0  0  0  0  0  0  0  0  0  0  0
    4.8000    2.7713    0.0000 C   0  0  0  0  0  0  0  0  0  0  0  0
    6.4000    2.7713    0.0000 C   0  0  0  0  0  0  0  0  0  0  0  0
    7.2000    1.3856    0.0000 C   0  0  0  0  0  0  0  0  0  0  0  0
    8.8000    1.3856    0.0000 O   0  0  0  0  0  0  0  0  0  0  0  0
    6.4000    0.0000    0.0000 O   0  0  0  0  0  0  0  0  0  0  0  0
    4.8000    0.0000    0.0000 C   0  0  0  0  0  0  0  0  0  0  0  0
    5.6000   -1.3856    0.0000 C   0  0  0  0  0  0  0  0  0  0  0  0
    4.0000   -1.3856    0.0000 C   0  0  0  0  0  0  0  0  0  0  0  0
    2.4000   -1.3856    0.0000 C   0  0  0  0  0  0  0  0  0  0  0  0
    1.6000    0.0000    0.0000 C   0  0  0  0  0  0  0  0  0  0  0  0
  1  2  2  0  0  0  0
  2  3  1  0  0  0  0
  2  8  1  0  0  0  0
  3  4  2  0  0  0  0
  4  5  1  0  0  0  0
  5  6  1  6  0  0  0
  5  7  1  0  0  0  0
  5 22  1  0  0  0  0
  7  8  2  0  0  0  0
  7  9  1  0  0  0  0
  9 10  1  0  0  0  0
 11 10  1  6  0  0  0
 11 12  1  0  0  0  0
 11 22  1  0  0  0  0
 12 13  1  6  0  0  0
 12 18  1  0  0  0  0
 13 14  1  0  0  0  0
 14 15  1  0  0  0  0
 15 16  2  0  0  0  0
 15 17  1  0  0  0  0
 17 18  1  0  0  0  0
 18 19  1  6  0  0  0
 18 20  1  0  0  0  0
 20 21  1  0  0  0  0
 22 21  1  6  0  0  0
M  END
> <Acceptable>
true

> <IC50>
N/A

$$$$

Generated by Molecular Materials Informatics

 19 21  0  0  0  0  0  0  0  0999 V2000
   -6.4000    0.0000    0.0000 O   0  0  0  0  0  0  0  0  0  0  0  0
   -4.8000    0.0000    0.0000 C   0  0  0  0  0  0  0  0  0  0  0  0
   -4.0000    1.3856    0.0000 N   0  0  0  0  0  0  0  0  0  0  0  0
   -2.4000    1.3856    0.0000 C   0  0  0  0  0  0  0  0  0  0  0  0
   -1.6000    2.7713    0.0000 O   0  0  0  0  0  0  0  0  0  0  0  0
   -1.6000    0.0000    0.0000 C   0  0  0  0  0  0  0  0  0  0  0  0
    0.0000    0.0000    0.0000 N   0  0  0  0  0  0  0  0  0  0  0  0
    0.9405    1.2944    0.0000 C   0  0  0  0  0  0  0  0  0  0  0  0
    0.4460    2.8161    0.0000 O   0  0  0  0  0  0  0  0  0  0  0  0
    2.4621    0.8000    0.0000 C   0  0  0  0  0  0  0  0  0  0  0  0
    3.8478    1.6000    0.0000 C   0  0  0  0  0  0  0  0  0  0  0  0
    5.2334    0.8000    0.0000 C   0  0  0  0  0  0  0  0  0  0  0  0
    5.2334   -0.8000    0.0000 C   0  0  0  0  0  0  0  0  0  0  0  0
    3.8478   -1.6000    0.0000 C   0  0  0  0  0  0  0  0  0  0  0  0
    2.4621   -0.8000    0.0000 C   0  0  0  0  0  0  0  0  0  0  0  0
    0.9405   -1.2944    0.0000 C   0  0  0  0  0  0  0  0  0  0  0  0
    0.4460   -2.8161    0.0000 O   0  0  0  0  0  0  0  0  0  0  0  0
   -2.4000   -1.3856    0.0000 C   0  0  0  0  0  0  0  0  0  0  0  0
   -4.0000   -1.3856    0.0000 C   0  0  0  0  0  0  0  0  0  0  0  0
  1  2  2  0  0  0  0
  2  3  1  0  0  0  0
  2 19  1  0  0  0  0
  3  4  1  0  0  0  0
  4  5  2  0  0  0  0
  4  6  1  0  0  0  0
  6  7  1  6  0  0  0
  6 18  1  0  0  0  0
  7  8  1  0  0  0  0
  7 16  1  0  0  0  0
  8  9  2  0  0  0  0
  8 10  1  0  0  0  0
 10 11  1  0  0  0  0
 10 15  2  0  0  0  0
 11 12  2  0  0  0  0
 12 13  1  0  0  0  0
 13 14  2  0  0  0  0
 14 15  1  0  0  0  0
 15 16  1  0  0  0  0
 16 17  2  0  0  0  0
 18 19  1  0  0  0  0
M  END
> <Acceptable>
true

> <IC50>
N/A

$$$$

Generated by Molecular Materials Informatics

 13 14  0  0  0  0  0  0  0  0999 V2000
    1.3856   -2.4000    0.0000 O   0  0  0  0  0  0  0  0  0  0  0  0
   -4.1569   -2.4000    0.0000 O   0  0  0  0  0  0  0  0  0  0  0  0
    1.1890    1.0706    0.0000 N   0  0  0  0  0  0  0  0  0  0  0  0
   -2.7713    0.0000    0.0000 N   0  0  0  0  0  0  0  0  0  0  0  0
   -1.3856   -2.4000    0.0000 N   0  0  0  0  0  0  0  0  0  0  0  0
   -1.0530    2.3650    0.0000 N   0  0  0  0  0  0  0  0  0  0  0  0
    0.0000    0.0000    0.0000 C   0  0  0  0  0  0  0  0  0  0  0  0
   -1.3856    0.8000    0.0000 C   0  0  0  0  0  0  0  0  0  0  0  0
    0.0000   -1.6000    0.0000 C   0  0  0  0  0  0  0  0  0  0  0  0
   -2.7713   -1.6000    0.0000 C   0  0  0  0  0  0  0  0  0  0  0  0
    0.5383    2.5323    0.0000 C   0  0  0  0  0  0  0  0  0  0  0  0
   -4.1569    0.8000    0.0000 C   0  0  0  0  0  0  0  0  0  0  0  0
    2.7541    0.7379    0.0000 C   0  0  0  0  0  0  0  0  0  0  0  0
  1  9  2  0  0  0  0
  2 10  2  0  0  0  0
  3  7  1  0  0  0  0
  3 11  1  0  0  0  0
  3 13  1  0  0  0  0
  4  8  1  0  0  0  0
  4 10  1  0  0  0  0
  4 12  1  0  0  0  0
  5  9  1  0  0  0  0
  5 10  1  0  0  0  0
  6  8  1  0  0  0  0
  6 11  2  0  0  0  0
  7  8  2  0  0  0  0
  7  9  1  0  0  0  0
M  END
> <Acceptable>
true

> <IC50>
>100

$$$$

Generated by Molecular Materials Informatics

 13 14  0  0  0  0  0  0  0  0999 V2000
    3.2000    2.7713    0.0000 O   0  0  0  0  0  0  0  0  0  0  0  0
    2.4000    1.3856    0.0000 C   0  0  0  0  0  0  0  0  0  0  0  0
    0.8000    1.3856    0.0000 N   0  0  0  0  0  0  0  0  0  0  0  0
    0.0000    2.7713    0.0000 C   0  0  0  0  0  0  0  0  0  0  0  0
    0.0000    0.0000    0.0000 C   0  0  0  0  0  0  0  0  0  0  0  0
   -1.5650   -0.3327    0.0000 N   0  0  0  0  0  0  0  0  0  0  0  0
   -1.7323   -1.9239    0.0000 C   0  0  0  0  0  0  0  0  0  0  0  0
   -0.2706   -2.5747    0.0000 N   0  0  0  0  0  0  0  0  0  0  0  0
    0.8000   -1.3856    0.0000 C   0  0  0  0  0  0  0  0  0  0  0  0
    2.4000   -1.3856    0.0000 C   0  0  0  0  0  0  0  0  0  0  0  0
    3.2000   -2.7713    0.0000 O   0  0  0  0  0  0  0  0  0  0  0  0
    3.2000    0.0000    0.0000 N   0  0  0  0  0  0  0  0  0  0  0  0
    4.8000    0.0000    0.0000 C   0  0  0  0  0  0  0  0  0  0  0  0
  1  2  2  0  0  0  0
  2  3  1  0  0  0  0
  2 12  1  0  0  0  0
  3  4  1  0  0  0  0
  3  5  1  0  0  0  0
  5  6  1  0  0  0  0
  5  9  2  0  0  0  0
  6  7  1  0  0  0  0
  7  8  2  0  0  0  0
  8  9  1  0  0  0  0
  9 10  1  0  0  0  0
 10 11  2  0  0  0  0
 10 12  1  0  0  0  0
 12 13  1  0  0  0  0
M  END
> <Acceptable>
true

> <IC50>
N/A

$$$$

Generated by Molecular Materials Informatics

 11 12  0  0  0  0  0  0  0  0999 V2000
   -1.3856    2.4000    0.0000 S   0  0  0  0  0  0  0  0  0  0  0  0
   -1.3856    0.8000    0.0000 C   0  0  0  0  0  0  0  0  0  0  0  0
   -2.7713    0.0000    0.0000 N   0  0  0  0  0  0  0  0  0  0  0  0
   -2.7713   -1.6000    0.0000 C   0  0  0  0  0  0  0  0  0  0  0  0
   -4.1569   -2.4000    0.0000 N   0  0  0  0  0  0  0  0  0  0  0  0
   -1.3856   -2.4000    0.0000 N   0  0  0  0  0  0  0  0  0  0  0  0
    0.0000   -1.6000    0.0000 C   0  0  0  0  0  0  0  0  0  0  0  0
    1.5217   -2.0944    0.0000 N   0  0  0  0  0  0  0  0  0  0  0  0
    2.4621   -0.8000    0.0000 C   0  0  0  0  0  0  0  0  0  0  0  0
    1.5217    0.4944    0.0000 N   0  0  0  0  0  0  0  0  0  0  0  0
    0.0000    0.0000    0.0000 C   0  0  0  0  0  0  0  0  0  0  0  0
  1  2  2  0  0  0  0
  2  3  1  0  0  0  0
  2 11  1  0  0  0  0
  3  4  2  0  0  0  0
  4  5  1  0  0  0  0
  4  6  1  0  0  0  0
  6  7  1  0  0  0  0
  7  8  1  0  0  0  0
  7 11  2  0  0  0  0
  8  9  2  0  0  0  0
  9 10  1  0  0  0  0
 10 11  1  0  0  0  0
M  END
> <Acceptable>
true

> <IC50>
N/A

$$$$

Generated by Molecular Materials Informatics

 16 16  0  0  0  0  0  0  0  0999 V2000
   -4.1569    2.4000    0.0000 S   0  0  0  0  0  0  0  0  0  0  0  0
   -2.7713    1.6000    0.0000 C   0  0  0  0  0  0  0  0  0  0  0  0
   -2.7713    0.0000    0.0000 N   0  0  0  0  0  0  0  0  0  0  0  0
   -1.3856   -0.8000    0.0000 C   0  0  0  0  0  0  0  0  0  0  0  0
   -1.3856   -2.4000    0.0000 O   0  0  0  0  0  0  0  0  0  0  0  0
    0.0000    0.0000    0.0000 C   0  0  0  0  0  0  0  0  0  0  0  0
    0.5472   -1.5035    0.0000 C   0  0  0  0  0  0  0  0  0  0  0  0
   -0.4812   -2.7292    0.0000 C   0  0  0  0  0  0  0  0  0  0  0  0
    0.0000    1.6000    0.0000 C   0  0  0  0  0  0  0  0  0  0  0  0
    1.3856    2.4000    0.0000 O   0  0  0  0  0  0  0  0  0  0  0  0
   -1.3856    2.4000    0.0000 N   0  0  0  0  0  0  0  0  0  0  0  0
    1.5757    0.2778    0.0000 C   0  0  0  0  0  0  0  0  0  0  0  0
    2.1229    1.7813    0.0000 C   0  0  0  0  0  0  0  0  0  0  0  0
    2.6042   -0.9478    0.0000 C   0  0  0  0  0  0  0  0  0  0  0  0
    4.1798   -0.6700    0.0000 C   0  0  0  0  0  0  0  0  0  0  0  0
    5.2083   -1.8957    0.0000 C   0  0  0  0  0  0  0  0  0  0  0  0
  1  2  2  0  0  0  0
  2  3  1  0  0  0  0
  2 11  1  0  0  0  0
  3  4  1  0  0  0  0
  4  5  2  0  0  0  0
  4  6  1  0  0  0  0
  6  7  1  0  0  0  0
  6  9  1  0  0  0  0
  6 12  1  0  0  0  0
  7  8  1  0  0  0  0
  9 10  2  0  0  0  0
  9 11  1  0  0  0  0
 12 13  1  6  0  0  0
 12 14  1  0  0  0  0
 14 15  1  0  0  0  0
 15 16  1  0  0  0  0
M  END
> <Acceptable>
false

> <IC50>
N/A

$$$$

Generated by Molecular Materials Informatics

 25 28  0  0  0  0  0  0  0  0999 V2000
    1.6000    2.7713    0.0000 S   0  0  0  0  0  0  0  0  0  0  0  0
    0.0000    2.7713    0.0000 C   0  0  0  0  0  0  0  0  0  0  0  0
   -0.8000    4.1569    0.0000 C   0  0  0  0  0  0  0  0  0  0  0  0
   -2.4000    4.1569    0.0000 C   0  0  0  0  0  0  0  0  0  0  0  0
   -3.2000    2.7713    0.0000 C   0  0  0  0  0  0  0  0  0  0  0  0
   -2.4000    1.3856    0.0000 C   0  0  0  0  0  0  0  0  0  0  0  0
   -0.8000    1.3856    0.0000 C   0  0  0  0  0  0  0  0  0  0  0  0
    0.0000    0.0000    0.0000 N   0  0  0  0  0  0  0  0  0  0  0  0
   -0.8000   -1.3856    0.0000 C   0  0  0  0  0  0  0  0  0  0  0  0
   -2.4000   -1.3856    0.0000 C   0  0  0  0  0  0  0  0  0  0  0  0
   -3.2000   -2.7713    0.0000 C   0  0  0  0  0  0  0  0  0  0  0  0
   -4.8000   -2.7713    0.0000 N   0  0  0  0  0  0  0  0  0  0  0  0
   -5.6000   -1.3856    0.0000 C   0  0  0  0  0  0  0  0  0  0  0  0
   -5.6000   -4.1569    0.0000 C   0  0  0  0  0  0  0  0  0  0  0  0
   -4.8000   -5.5426    0.0000 C   0  0  0  0  0  0  0  0  0  0  0  0
   -3.2000   -5.5426    0.0000 C   0  0  0  0  0  0  0  0  0  0  0  0
   -2.4000   -4.1569    0.0000 C   0  0  0  0  0  0  0  0  0  0  0  0
    1.6000    0.0000    0.0000 C   0  0  0  0  0  0  0  0  0  0  0  0
    2.4000   -1.3856    0.0000 C   0  0  0  0  0  0  0  0  0  0  0  0
    4.0000   -1.3856    0.0000 C   0  0  0  0  0  0  0  0  0  0  0  0
    4.8000   -2.7713    0.0000 S   0  0  0  0  0  0  0  0  0  0  0  0
    6.4000   -2.7713    0.0000 C   0  0  0  0  0  0  0  0  0  0  0  0
    4.8000    0.0000    0.0000 C   0  0  0  0  0  0  0  0  0  0  0  0
    4.0000    1.3856    0.0000 C   0  0  0  0  0  0  0  0  0  0  0  0
    2.4000    1.3856    0.0000 C   0  0  0  0  0  0  0  0  0  0  0  0
  1  2  1  0  0  0  0
  1 25  1  0  0  0  0
  2  3  1  0  0  0  0
  2  7  2  0  0  0  0
  3  4  2  0  0  0  0
  4  5  1  0  0  0  0
  5  6  2  0  0  0  0
  6  7  1  0  0  0  0
  7  8  1  0  0  0  0
  8  9  1  0  0  0  0
  8 18  1  0  0  0  0
  9 10  1  0  0  0  0
 11 10  1  1  0  0  0
 11 12  1  0  0  0  0
 11 17  1  0  0  0  0
 12 13  1  6  0  0  0
 12 14  1  0  0  0  0
 14 15  1  0  0  0  0
 15 16  1  0  0  0  0
 16 17  1  0  0  0  0
 18 19  1  0  0  0  0
 18 25  2  0  0  0  0
 19 20  2  0  0  0  0
 20 21  1  0  0  0  0
 20 23  1  0  0  0  0
 21 22  1  0  0  0  0
 23 24  2  0  0  0  0
 24 25  1  0  0  0  0
M  END
> <Acceptable>
false

> <IC50>
0.096

$$$$

Generated by Molecular Materials Informatics

 30 33  0  0  0  0  0  0  0  0999 V2000
    0.0000    2.7713    0.0000 S   0  0  0  0  0  0  0  0  0  0  0  0
   -1.6000    2.7713    0.0000 C   0  0  0  0  0  0  0  0  0  0  0  0
   -2.4000    4.1569    0.0000 C   0  0  0  0  0  0  0  0  0  0  0  0
   -4.0000    4.1569    0.0000 C   0  0  0  0  0  0  0  0  0  0  0  0
   -4.8000    2.7713    0.0000 C   0  0  0  0  0  0  0  0  0  0  0  0
   -4.0000    1.3856    0.0000 C   0  0  0  0  0  0  0  0  0  0  0  0
   -2.4000    1.3856    0.0000 C   0  0  0  0  0  0  0  0  0  0  0  0
   -1.6000    0.0000    0.0000 C   0  0  0  0  0  0  0  0  0  0  0  0
   -2.4000   -1.3856    0.0000 C   0  0  0  0  0  0  0  0  0  0  0  0
   -4.0000   -1.3856    0.0000 C   0  0  0  0  0  0  0  0  0  0  0  0
   -4.8000   -2.7713    0.0000 C   0  0  0  0  0  0  0  0  0  0  0  0
   -6.4000   -2.7713    0.0000 N   0  0  0  0  0  0  0  0  0  0  0  0
   -7.2000   -1.3856    0.0000 C   0  0  0  0  0  0  0  0  0  0  0  0
   -8.8000   -1.3856    0.0000 C   0  0  0  0  0  0  0  0  0  0  0  0
   -9.6000   -2.7713    0.0000 N   0  0  0  0  0  0  0  0  0  0  0  0
  -11.2000   -2.7713    0.0000 C   0  0  0  0  0  0  0  0  0  0  0  0
   -8.8000   -4.1569    0.0000 C   0  0  0  0  0  0  0  0  0  0  0  0
   -7.2000   -4.1569    0.0000 C   0  0  0  0  0  0  0  0  0  0  0  0
    0.0000    0.0000    0.0000 C   0  0  0  0  0  0  0  0  0  0  0  0
    0.8000   -1.3856    0.0000 C   0  0  0  0  0  0  0  0  0  0  0  0
    2.4000   -1.3856    0.0000 C   0  0  0  0  0  0  0  0  0  0  0  0
    3.2000   -2.7713    0.0000 S   0  0  0  0  0  0  0  0  0  0  0  0
    1.8144   -3.5713    0.0000 O   0  0  0  0  0  0  0  0  0  0  0  0
    4.5856   -1.9713    0.0000 O   0  0  0  0  0  0  0  0  0  0  0  0
    4.0000   -4.1569    0.0000 N   0  0  0  0  0  0  0  0  0  0  0  0
    3.2000   -5.5426    0.0000 C   0  0  0  0  0  0  0  0  0  0  0  0
    5.6000   -4.1569    0.0000 C   0  0  0  0  0  0  0  0  0  0  0  0
    3.2000    0.0000    0.0000 C   0  0  0  0  0  0  0  0  0  0  0  0
    2.4000    1.3856    0.0000 C   0  0  0  0  0  0  0  0  0  0  0  0
    0.8000    1.3856    0.0000 C   0  0  0  0  0  0  0  0  0  0  0  0
  1  2  1  0  0  0  0
  1 30  1  0  0  0  0
  2  3  1  0  0  0  0
  2  7  2  0  0  0  0
  3  4  2  0  0  0  0
  4  5  1  0  0  0  0
  5  6  2  0  0  0  0
  6  7  1  0  0  0  0
  7  8  1  0  0  0  0
  8  9  2  0  0  0  0
  8 19  1  0  0  0  0
  9 10  1  0  0  0  0
 10 11  1  0  0  0  0
 12 11  1  1  0  0  0
 12 13  1  0  0  0  0
 12 18  1  0  0  0  0
 13 14  1  0  0  0  0
 14 15  1  0  0  0  0
 15 16  1  6  0  0  0
 15 17  1  0  0  0  0
 17 18  1  0  0  0  0
 19 20  1  0  0  0  0
 19 30  2  0  0  0  0
 20 21  2  0  0  0  0
 21 22  1  0  0  0  0
 21 28  1  0  0  0  0
 22 23  2  0  0  0  0
 22 24  2  0  0  0  0
 22 25  1  0  0  0  0
 25 26  1  0  0  0  0
 25 27  1  0  0  0  0
 28 29  2  0  0  0  0
 29 30  1  0  0  0  0
M  END
> <Acceptable>
true

> <IC50>
N/A

$$$$

Generated by Molecular Materials Informatics

 25 27  0  0  0  0  0  0  0  0999 V2000
   -1.5529    2.3912    0.0000 S   0  0  0  0  0  0  0  0  0  0  0  0
   -3.1179    2.7239    0.0000 C   0  0  0  0  0  0  0  0  0  0  0  0
   -3.9179    1.3383    0.0000 C   0  0  0  0  0  0  0  0  0  0  0  0
   -2.8473    0.1492    0.0000 C   0  0  0  0  0  0  0  0  0  0  0  0
   -3.1800   -1.4158    0.0000 C   0  0  0  0  0  0  0  0  0  0  0  0
   -1.3856    0.8000    0.0000 C   0  0  0  0  0  0  0  0  0  0  0  0
    0.0000    0.0000    0.0000 C   0  0  0  0  0  0  0  0  0  0  0  0
    1.3856    0.8000    0.0000 C   0  0  0  0  0  0  0  0  0  0  0  0
    2.7713    0.0000    0.0000 C   0  0  0  0  0  0  0  0  0  0  0  0
    4.1569    0.8000    0.0000 C   0  0  0  0  0  0  0  0  0  0  0  0
    5.5426    0.0000    0.0000 N   0  0  0  0  0  0  0  0  0  0  0  0
    5.5426   -1.6000    0.0000 C   0  0  0  0  0  0  0  0  0  0  0  0
    6.9282   -2.4000    0.0000 C   0  0  0  0  0  0  0  0  0  0  0  0
    8.3138   -1.6000    0.0000 C   0  0  0  0  0  0  0  0  0  0  0  0
    8.3138    0.0000    0.0000 C   0  0  0  0  0  0  0  0  0  0  0  0
    6.9282    0.8000    0.0000 C   0  0  0  0  0  0  0  0  0  0  0  0
    9.6995    0.8000    0.0000 C   0  0  0  0  0  0  0  0  0  0  0  0
    9.6995    2.4000    0.0000 O   0  0  0  0  0  0  0  0  0  0  0  0
   11.0851    0.0000    0.0000 O   0  0  0  0  0  0  0  0  0  0  0  0
    0.0000   -1.6000    0.0000 C   0  0  0  0  0  0  0  0  0  0  0  0
   -1.2944   -2.5405    0.0000 S   0  0  0  0  0  0  0  0  0  0  0  0
   -0.8000   -4.0621    0.0000 C   0  0  0  0  0  0  0  0  0  0  0  0
    0.8000   -4.0621    0.0000 C   0  0  0  0  0  0  0  0  0  0  0  0
    1.2944   -2.5405    0.0000 C   0  0  0  0  0  0  0  0  0  0  0  0
    2.8161   -2.0460    0.0000 C   0  0  0  0  0  0  0  0  0  0  0  0
  1  2  1  0  0  0  0
  1  6  1  0  0  0  0
  2  3  2  0  0  0  0
  3  4  1  0  0  0  0
  4  5  1  0  0  0  0
  4  6  2  0  0  0  0
  6  7  1  0  0  0  0
  7  8  2  0  0  0  0
  7 20  1  0  0  0  0
  8  9  1  0  0  0  0
  9 10  1  0  0  0  0
 11 10  1  6  0  0  0
 11 12  1  0  0  0  0
 11 16  1  0  0  0  0
 12 13  1  0  0  0  0
 13 14  1  0  0  0  0
 14 15  1  0  0  0  0
 15 16  1  0  0  0  0
 15 17  1  6  0  0  0
 17 18  2  0  0  0  0
 17 19  1  0  0  0  0
 20 21  1  0  0  0  0
 20 24  2  0  0  0  0
 21 22  1  0  0  0  0
 22 23  2  0  0  0  0
 23 24  1  0  0  0  0
 24 25  1  0  0  0  0
M  END
> <Acceptable>
true

> <IC50>
N/A

$$$$

Generated by Molecular Materials Informatics

 17 19  0  0  0  0  0  0  0  0999 V2000
   -6.9282    2.4000    0.0000 Cl  0  0  0  0  0  0  0  0  0  0  0  0
   -6.9282    0.8000    0.0000 C   0  0  0  0  0  0  0  0  0  0  0  0
   -8.3138    0.0000    0.0000 C   0  0  0  0  0  0  0  0  0  0  0  0
   -8.3138   -1.6000    0.0000 C   0  0  0  0  0  0  0  0  0  0  0  0
   -6.9282   -2.4000    0.0000 C   0  0  0  0  0  0  0  0  0  0  0  0
   -5.5426   -1.6000    0.0000 C   0  0  0  0  0  0  0  0  0  0  0  0
   -5.5426    0.0000    0.0000 C   0  0  0  0  0  0  0  0  0  0  0  0
   -4.1569    0.8000    0.0000 C   0  0  0  0  0  0  0  0  0  0  0  0
   -2.7713    0.0000    0.0000 N   0  0  0  0  0  0  0  0  0  0  0  0
   -2.7713   -1.6000    0.0000 C   0  0  0  0  0  0  0  0  0  0  0  0
   -1.3856   -2.4000    0.0000 C   0  0  0  0  0  0  0  0  0  0  0  0
    0.0000   -1.6000    0.0000 C   0  0  0  0  0  0  0  0  0  0  0  0
    1.5217   -2.0944    0.0000 S   0  0  0  0  0  0  0  0  0  0  0  0
    2.4621   -0.8000    0.0000 C   0  0  0  0  0  0  0  0  0  0  0  0
    1.5217    0.4944    0.0000 C   0  0  0  0  0  0  0  0  0  0  0  0
    0.0000    0.0000    0.0000 C   0  0  0  0  0  0  0  0  0  0  0  0
   -1.3856    0.8000    0.0000 C   0  0  0  0  0  0  0  0  0  0  0  0
  1  2  1  0  0  0  0
  2  3  1  0  0  0  0
  2  7  2  0  0  0  0
  3  4  2  0  0  0  0
  4  5  1  0  0  0  0
  5  6  2  0  0  0  0
  6  7  1  0  0  0  0
  7  8  1  0  0  0  0
  9  8  1  1  0  0  0
  9 10  1  0  0  0  0
  9 17  1  0  0  0  0
 10 11  1  0  0  0  0
 11 12  1  0  0  0  0
 12 13  1  0  0  0  0
 12 16  2  0  0  0  0
 13 14  1  0  0  0  0
 14 15  2  0  0  0  0
 15 16  1  0  0  0  0
 16 17  1  0  0  0  0
M  END
> <Acceptable>
true

> <IC50>
N/A

$$$$

Generated by Molecular Materials Informatics

 17 17  0  0  0  0  0  0  0  0999 V2000
   -7.2000    1.3856    0.0000 Cl  0  0  0  0  0  0  0  0  0  0  0  0
   -5.6000    1.3856    0.0000 C   0  0  0  0  0  0  0  0  0  0  0  0
   -4.8000    0.0000    0.0000 C   0  0  0  0  0  0  0  0  0  0  0  0
   -3.2000    0.0000    0.0000 C   0  0  0  0  0  0  0  0  0  0  0  0
   -2.4000    1.3856    0.0000 C   0  0  0  0  0  0  0  0  0  0  0  0
   -0.8000    1.3856    0.0000 S   0  0  0  0  0  0  0  0  0  0  0  0
    0.0000    0.0000    0.0000 C   0  0  0  0  0  0  0  0  0  0  0  0
   -0.8000   -1.3856    0.0000 P   0  0  0  0  0  0  0  0  0  0  0  0
   -2.4000   -1.3856    0.0000 O   0  0  0  0  0  0  0  0  0  0  0  0
    0.0000   -2.7713    0.0000 O   0  0  0  0  0  0  0  0  0  0  0  0
   -1.6000   -2.7713    0.0000 O   0  0  0  0  0  0  0  0  0  0  0  0
    1.6000    0.0000    0.0000 P   0  0  0  0  0  0  0  0  0  0  0  0
    2.4000    1.3856    0.0000 O   0  0  0  0  0  0  0  0  0  0  0  0
    2.4000   -1.3856    0.0000 O   0  0  0  0  0  0  0  0  0  0  0  0
    3.2000    0.0000    0.0000 O   0  0  0  0  0  0  0  0  0  0  0  0
   -3.2000    2.7713    0.0000 C   0  0  0  0  0  0  0  0  0  0  0  0
   -4.8000    2.7713    0.0000 C   0  0  0  0  0  0  0  0  0  0  0  0
  1  2  1  0  0  0  0
  2  3  1  0  0  0  0
  2 17  2  0  0  0  0
  3  4  2  0  0  0  0
  4  5  1  0  0  0  0
  5  6  1  0  0  0  0
  5 16  2  0  0  0  0
  6  7  1  0  0  0  0
  7  8  1  0  0  0  0
  7 12  1  0  0  0  0
  8  9  2  0  0  0  0
  8 10  1  0  0  0  0
  8 11  1  0  0  0  0
 12 13  2  0  0  0  0
 12 14  1  0  0  0  0
 12 15  1  0  0  0  0
 16 17  1  0  0  0  0
M  END
> <Acceptable>
true

> <IC50>
N/A

$$$$

Generated by Molecular Materials Informatics

 21 22  0  0  0  0  0  0  0  0999 V2000
   -0.5383    2.5323    0.0000 S   0  0  0  0  0  0  0  0  0  0  0  0
   -1.9239    1.7323    0.0000 N   0  0  0  0  0  0  0  0  0  0  0  0
   -1.5912    0.1672    0.0000 C   0  0  0  0  0  0  0  0  0  0  0  0
   -2.6618   -1.0218    0.0000 O   0  0  0  0  0  0  0  0  0  0  0  0
   -4.2269   -0.6891    0.0000 C   0  0  0  0  0  0  0  0  0  0  0  0
   -5.2975   -1.8782    0.0000 C   0  0  0  0  0  0  0  0  0  0  0  0
   -4.8031   -3.3998    0.0000 O   0  0  0  0  0  0  0  0  0  0  0  0
   -6.8625   -1.5455    0.0000 C   0  0  0  0  0  0  0  0  0  0  0  0
   -7.9331   -2.7345    0.0000 N   0  0  0  0  0  0  0  0  0  0  0  0
   -9.4982   -2.4019    0.0000 C   0  0  0  0  0  0  0  0  0  0  0  0
   -9.9926   -0.8802    0.0000 C   0  0  0  0  0  0  0  0  0  0  0  0
  -10.5688   -3.5909    0.0000 C   0  0  0  0  0  0  0  0  0  0  0  0
  -11.0632   -2.0692    0.0000 C   0  0  0  0  0  0  0  0  0  0  0  0
    0.0000    0.0000    0.0000 C   0  0  0  0  0  0  0  0  0  0  0  0
    0.6508    1.4617    0.0000 N   0  0  0  0  0  0  0  0  0  0  0  0
    0.8000   -1.3856    0.0000 N   0  0  0  0  0  0  0  0  0  0  0  0
    0.0000   -2.7713    0.0000 C   0  0  0  0  0  0  0  0  0  0  0  0
    0.8000   -4.1569    0.0000 C   0  0  0  0  0  0  0  0  0  0  0  0
    2.4000   -4.1569    0.0000 O   0  0  0  0  0  0  0  0  0  0  0  0
    3.2000   -2.7713    0.0000 C   0  0  0  0  0  0  0  0  0  0  0  0
    2.4000   -1.3856    0.0000 C   0  0  0  0  0  0  0  0  0  0  0  0
  1  2  1  0  0  0  0
  1 15  1  0  0  0  0
  2  3  2  0  0  0  0
  3  4  1  0  0  0  0
  3 14  1  0  0  0  0
  4  5  1  0  0  0  0
  5  6  1  0  0  0  0
  6  7  1  1  0  0  0
  6  8  1  0  0  0  0
  8  9  1  0  0  0  0
  9 10  1  0  0  0  0
 10 11  1  0  0  0  0
 10 12  1  0  0  0  0
 10 13  1  0  0  0  0
 14 15  2  0  0  0  0
 14 16  1  0  0  0  0
 16 17  1  0  0  0  0
 16 21  1  0  0  0  0
 17 18  1  0  0  0  0
 18 19  1  0  0  0  0
 19 20  1  0  0  0  0
 20 21  1  0  0  0  0
M  END
> <Acceptable>
true

> <IC50>
N/A

$$$$

Generated by Molecular Materials Informatics

 16 18  0  0  0  0  0  0  0  0999 V2000
    2.7713   -3.2000    0.0000 Cl  0  0  0  0  0  0  0  0  0  0  0  0
    1.3856   -2.4000    0.0000 C   0  0  0  0  0  0  0  0  0  0  0  0
    0.0000   -3.2000    0.0000 C   0  0  0  0  0  0  0  0  0  0  0  0
   -1.3856   -2.4000    0.0000 C   0  0  0  0  0  0  0  0  0  0  0  0
   -1.3856   -0.8000    0.0000 C   0  0  0  0  0  0  0  0  0  0  0  0
   -2.5747    0.2706    0.0000 N   0  0  0  0  0  0  0  0  0  0  0  0
   -1.9239    1.7323    0.0000 S   0  0  0  0  0  0  0  0  0  0  0  0
   -0.3327    1.5650    0.0000 N   0  0  0  0  0  0  0  0  0  0  0  0
    0.0000    0.0000    0.0000 C   0  0  0  0  0  0  0  0  0  0  0  0
    1.3856   -0.8000    0.0000 C   0  0  0  0  0  0  0  0  0  0  0  0
    2.7713    0.0000    0.0000 N   0  0  0  0  0  0  0  0  0  0  0  0
    4.1569   -0.8000    0.0000 C   0  0  0  0  0  0  0  0  0  0  0  0
    5.6186   -0.1492    0.0000 N   0  0  0  0  0  0  0  0  0  0  0  0
    6.6892   -1.3383    0.0000 C   0  0  0  0  0  0  0  0  0  0  0  0
    5.8892   -2.7239    0.0000 C   0  0  0  0  0  0  0  0  0  0  0  0
    4.3242   -2.3912    0.0000 N   0  0  0  0  0  0  0  0  0  0  0  0
  1  2  1  0  0  0  0
  2  3  1  0  0  0  0
  2 10  2  0  0  0  0
  3  4  2  0  0  0  0
  4  5  1  0  0  0  0
  5  6  2  0  0  0  0
  5  9  1  0  0  0  0
  6  7  1  0  0  0  0
  7  8  1  0  0  0  0
  8  9  2  0  0  0  0
  9 10  1  0  0  0  0
 10 11  1  0  0  0  0
 11 12  1  0  0  0  0
 12 13  2  0  0  0  0
 12 16  1  0  0  0  0
 13 14  1  0  0  0  0
 14 15  1  0  0  0  0
 15 16  1  0  0  0  0
M  END
> <Acceptable>
true

> <IC50>
N/A

$$$$

Generated by Molecular Materials Informatics

 14 14  0  0  0  0  0  0  0  0999 V2000
    2.7713   -1.6000    0.0000 O   0  0  0  0  0  0  0  0  0  0  0  0
    2.7713    0.0000    0.0000 C   0  0  0  0  0  0  0  0  0  0  0  0
    1.3856    0.8000    0.0000 N   0  0  0  0  0  0  0  0  0  0  0  0
    0.0000    0.0000    0.0000 C   0  0  0  0  0  0  0  0  0  0  0  0
    0.0000   -1.6000    0.0000 C   0  0  0  0  0  0  0  0  0  0  0  0
    1.3856   -2.4000    0.0000 C   0  0  0  0  0  0  0  0  0  0  0  0
   -1.3856   -2.4000    0.0000 C   0  0  0  0  0  0  0  0  0  0  0  0
   -2.7713   -1.6000    0.0000 C   0  0  0  0  0  0  0  0  0  0  0  0
   -2.7713    0.0000    0.0000 C   0  0  0  0  0  0  0  0  0  0  0  0
   -1.3856    0.8000    0.0000 C   0  0  0  0  0  0  0  0  0  0  0  0
   -1.3856    2.4000    0.0000 C   0  0  0  0  0  0  0  0  0  0  0  0
    4.1569    0.8000    0.0000 C   0  0  0  0  0  0  0  0  0  0  0  0
    4.1569    2.4000    0.0000 N   0  0  0  0  0  0  0  0  0  0  0  0
    5.5426    0.0000    0.0000 C   0  0  0  0  0  0  0  0  0  0  0  0
  1  2  2  0  0  0  0
  2  3  1  0  0  0  0
  2 12  1  0  0  0  0
  3  4  1  0  0  0  0
  4  5  1  0  0  0  0
  4 10  2  0  0  0  0
  5  6  1  0  0  0  0
  5  7  2  0  0  0  0
  7  8  1  0  0  0  0
  8  9  2  0  0  0  0
  9 10  1  0  0  0  0
 10 11  1  0  0  0  0
 12 13  1  6  0  0  0
 12 14  1  0  0  0  0
M  END
> <Acceptable>
true

> <IC50>
N/A

$$$$

Generated by Molecular Materials Informatics

 20 21  0  0  0  0  0  0  0  0999 V2000
   -5.5426    0.0000    0.0000 O   0  0  0  0  0  0  0  0  0  0  0  0
   -4.1569   -0.8000    0.0000 N   0  3  0  0  0  0  0  0  0  0  0  0
   -4.1569   -2.4000    0.0000 O   0  5  0  0  0  0  0  0  0  0  0  0
   -2.7713    0.0000    0.0000 C   0  0  0  0  0  0  0  0  0  0  0  0
   -1.3856   -0.8000    0.0000 C   0  0  0  0  0  0  0  0  0  0  0  0
    0.0000    0.0000    0.0000 C   0  0  0  0  0  0  0  0  0  0  0  0
    0.0000    1.6000    0.0000 C   0  0  0  0  0  0  0  0  0  0  0  0
   -1.3856    2.4000    0.0000 C   0  0  0  0  0  0  0  0  0  0  0  0
   -1.3856    4.0000    0.0000 O   0  0  0  0  0  0  0  0  0  0  0  0
   -2.7713    1.6000    0.0000 C   0  0  0  0  0  0  0  0  0  0  0  0
   -4.1569    2.4000    0.0000 O   0  0  0  0  0  0  0  0  0  0  0  0
    1.3856   -0.8000    0.0000 C   0  0  0  0  0  0  0  0  0  0  0  0
    1.3856   -2.4000    0.0000 O   0  0  0  0  0  0  0  0  0  0  0  0
    2.7713    0.0000    0.0000 C   0  0  0  0  0  0  0  0  0  0  0  0
    4.1569   -0.8000    0.0000 C   0  0  0  0  0  0  0  0  0  0  0  0
    5.5426    0.0000    0.0000 C   0  0  0  0  0  0  0  0  0  0  0  0
    5.5426    1.6000    0.0000 C   0  0  0  0  0  0  0  0  0  0  0  0
    6.9282    2.4000    0.0000 C   0  0  0  0  0  0  0  0  0  0  0  0
    4.1569    2.4000    0.0000 C   0  0  0  0  0  0  0  0  0  0  0  0
    2.7713    1.6000    0.0000 C   0  0  0  0  0  0  0  0  0  0  0  0
  1  2  2  0  0  0  0
  2  3  1  0  0  0  0
  2  4  1  0  0  0  0
  4  5  1  0  0  0  0
  4 10  2  0  0  0  0
  5  6  2  0  0  0  0
  6  7  1  0  0  0  0
  6 12  1  0  0  0  0
  7  8  2  0  0  0  0
  8  9  1  0  0  0  0
  8 10  1  0  0  0  0
 10 11  1  0  0  0  0
 12 13  2  0  0  0  0
 12 14  1  0  0  0  0
 14 15  1  0  0  0  0
 14 20  2  0  0  0  0
 15 16  2  0  0  0  0
 16 17  1  0  0  0  0
 17 18  1  0  0  0  0
 17 19  2  0  0  0  0
 19 20  1  0  0  0  0
M  CHG  2   2   1   3  -1
M  END
> <Acceptable>
true

> <IC50>
N/A

$$$$

Generated by Molecular Materials Informatics

 19 20  0  0  0  0  0  0  0  0999 V2000
   -3.6666    3.9763    0.0000 O   0  0  0  0  0  0  0  0  0  0  0  0
   -4.6070    2.6819    0.0000 C   0  0  0  0  0  0  0  0  0  0  0  0
   -6.1983    2.8491    0.0000 O   0  0  0  0  0  0  0  0  0  0  0  0
   -3.9563    1.2202    0.0000 C   0  0  0  0  0  0  0  0  0  0  0  0
   -2.3650    1.0530    0.0000 C   0  0  0  0  0  0  0  0  0  0  0  0
   -1.5650   -0.3327    0.0000 N   0  0  0  0  0  0  0  0  0  0  0  0
   -2.2158   -1.7943    0.0000 C   0  0  0  0  0  0  0  0  0  0  0  0
    0.0000    0.0000    0.0000 C   0  0  0  0  0  0  0  0  0  0  0  0
    0.1672    1.5912    0.0000 C   0  0  0  0  0  0  0  0  0  0  0  0
   -1.2944    2.2420    0.0000 C   0  0  0  0  0  0  0  0  0  0  0  0
    1.1890   -1.0706    0.0000 C   0  0  0  0  0  0  0  0  0  0  0  0
    0.8564   -2.6356    0.0000 O   0  0  0  0  0  0  0  0  0  0  0  0
    2.7107   -0.5762    0.0000 C   0  0  0  0  0  0  0  0  0  0  0  0
    3.8998   -1.6468    0.0000 C   0  0  0  0  0  0  0  0  0  0  0  0
    5.4214   -1.1524    0.0000 C   0  0  0  0  0  0  0  0  0  0  0  0
    5.7541    0.4127    0.0000 C   0  0  0  0  0  0  0  0  0  0  0  0
    7.2758    0.9071    0.0000 C   0  0  0  0  0  0  0  0  0  0  0  0
    4.5651    1.4833    0.0000 C   0  0  0  0  0  0  0  0  0  0  0  0
    3.0434    0.9889    0.0000 C   0  0  0  0  0  0  0  0  0  0  0  0
  1  2  2  0  0  0  0
  2  3  1  0  0  0  0
  2  4  1  0  0  0  0
  4  5  1  0  0  0  0
  5  6  1  0  0  0  0
  5 10  2  0  0  0  0
  6  7  1  0  0  0  0
  6  8  1  0  0  0  0
  8  9  2  0  0  0  0
  8 11  1  0  0  0  0
  9 10  1  0  0  0  0
 11 12  2  0  0  0  0
 11 13  1  0  0  0  0
 13 14  1  0  0  0  0
 13 19  2  0  0  0  0
 14 15  2  0  0  0  0
 15 16  1  0  0  0  0
 16 17  1  0  0  0  0
 16 18  2  0  0  0  0
 18 19  1  0  0  0  0
M  END
> <Acceptable>
true

> <IC50>
N/A

$$$$

Generated by Molecular Materials Informatics

 24 25  0  0  0  0  0  0  0  0999 V2000
    0.0000    0.0000    0.0000 C   0  0  0  0  0  0  0  0  0  0  0  0
   -1.3856   -0.8000    0.0000 C   0  0  0  0  0  0  0  0  0  0  0  0
    0.0000    1.6000    0.0000 C   0  0  0  0  0  0  0  0  0  0  0  0
    1.3856   -0.8000    0.0000 C   0  0  0  0  0  0  0  0  0  0  0  0
   -1.3856   -2.4000    0.0000 C   0  0  0  0  0  0  0  0  0  0  0  0
   -2.7713    0.0000    0.0000 C   0  0  0  0  0  0  0  0  0  0  0  0
   -1.3856    2.4000    0.0000 C   0  0  0  0  0  0  0  0  0  0  0  0
    1.3856    2.4000    0.0000 C   0  0  0  0  0  0  0  0  0  0  0  0
    2.7713    0.0000    0.0000 C   0  0  0  0  0  0  0  0  0  0  0  0
   -2.7713   -3.2000    0.0000 C   0  0  0  0  0  0  0  0  0  0  0  0
    0.0000   -3.2000    0.0000 O   0  0  0  0  0  0  0  0  0  0  0  0
   -4.1569   -0.8000    0.0000 C   0  0  0  0  0  0  0  0  0  0  0  0
   -1.3856    4.0000    0.0000 C   0  0  0  0  0  0  0  0  0  0  0  0
    1.3856    4.0000    0.0000 C   0  0  0  0  0  0  0  0  0  0  0  0
    4.1569   -0.8000    0.0000 N   0  0  0  0  0  0  0  0  0  0  0  0
   -4.1569   -2.4000    0.0000 C   0  0  0  0  0  0  0  0  0  0  0  0
   -5.5426    0.0000    0.0000 C   0  0  0  0  0  0  0  0  0  0  0  0
    0.0000    4.8000    0.0000 C   0  0  0  0  0  0  0  0  0  0  0  0
    4.1569   -2.4000    0.0000 C   0  0  0  0  0  0  0  0  0  0  0  0
    5.5426    0.0000    0.0000 C   0  0  0  0  0  0  0  0  0  0  0  0
    2.7713   -3.2000    0.0000 C   0  0  0  0  0  0  0  0  0  0  0  0
    5.5426   -3.2000    0.0000 C   0  0  0  0  0  0  0  0  0  0  0  0
    5.5426    1.6000    0.0000 C   0  0  0  0  0  0  0  0  0  0  0  0
    6.9282   -0.8000    0.0000 C   0  0  0  0  0  0  0  0  0  0  0  0
  1  2  1  0  0  0  0
  1  3  1  0  0  0  0
  1  4  1  1  0  0  0
  2  5  2  0  0  0  0
  2  6  1  0  0  0  0
  3  7  2  0  0  0  0
  3  8  1  0  0  0  0
  4  9  1  0  0  0  0
  5 10  1  0  0  0  0
  5 11  1  0  0  0  0
  6 12  2  0  0  0  0
  7 13  1  0  0  0  0
  8 14  2  0  0  0  0
  9 15  1  0  0  0  0
 10 16  2  0  0  0  0
 12 16  1  0  0  0  0
 12 17  1  0  0  0  0
 13 18  2  0  0  0  0
 14 18  1  0  0  0  0
 15 19  1  0  0  0  0
 15 20  1  0  0  0  0
 19 21  1  0  0  0  0
 19 22  1  0  0  0  0
 20 23  1  0  0  0  0
 20 24  1  0  0  0  0
M  END
> <Acceptable>
false

> <IC50>
0.0128

$$$$

Generated by Molecular Materials Informatics

 22 24  0  0  0  0  0  0  0  0999 V2000
    3.0906   -2.8928    0.0000 S   0  0  0  0  0  0  0  0  0  0  0  0
    3.7414   -1.4311    0.0000 O   0  0  0  0  0  0  0  0  0  0  0  0
    2.4398   -4.3545    0.0000 O   0  0  0  0  0  0  0  0  0  0  0  0
    1.6289   -2.2420    0.0000 O   0  0  0  0  0  0  0  0  0  0  0  0
    1.4617   -0.6508    0.0000 C   0  0  0  0  0  0  0  0  0  0  0  0
    0.0000    0.0000    0.0000 C   0  0  0  0  0  0  0  0  0  0  0  0
    0.0000   -1.6000    0.0000 O   0  0  0  0  0  0  0  0  0  0  0  0
   -1.3856   -2.4000    0.0000 C   0  0  0  0  0  0  0  0  0  0  0  0
   -2.7713   -1.6000    0.0000 C   0  0  0  0  0  0  0  0  0  0  0  0
   -4.2930   -2.0944    0.0000 O   0  0  0  0  0  0  0  0  0  0  0  0
   -5.2334   -0.8000    0.0000 C   0  0  0  0  0  0  0  0  0  0  0  0
   -4.2930    0.4944    0.0000 O   0  0  0  0  0  0  0  0  0  0  0  0
   -2.7713    0.0000    0.0000 C   0  0  0  0  0  0  0  0  0  0  0  0
   -1.3856    0.8000    0.0000 C   0  0  0  0  0  0  0  0  0  0  0  0
   -1.0530    2.3650    0.0000 O   0  0  0  0  0  0  0  0  0  0  0  0
    0.5383    2.5323    0.0000 C   0  0  0  0  0  0  0  0  0  0  0  0
    1.1890    1.0706    0.0000 O   0  0  0  0  0  0  0  0  0  0  0  0
    0.2056    4.0973    0.0000 C   0  0  0  0  0  0  0  0  0  0  0  0
    2.0599    3.0267    0.0000 C   0  0  0  0  0  0  0  0  0  0  0  0
   -6.4225   -1.8706    0.0000 C   0  0  0  0  0  0  0  0  0  0  0  0
   -6.4225    0.2706    0.0000 C   0  0  0  0  0  0  0  0  0  0  0  0
    4.5523   -3.5436    0.0000 N   0  0  0  0  0  0  0  0  0  0  0  0
  1  2  2  0  0  0  0
  1  3  2  0  0  0  0
  1  4  1  0  0  0  0
  1 22  1  0  0  0  0
  4  5  1  0  0  0  0
  6  5  1  1  0  0  0
  6  7  1  0  0  0  0
  6 14  1  0  0  0  0
  6 17  1  0  0  0  0
  7  8  1  0  0  0  0
  9  8  1  1  0  0  0
  9 10  1  0  0  0  0
  9 13  1  0  0  0  0
 10 11  1  0  0  0  0
 11 12  1  0  0  0  0
 11 20  1  0  0  0  0
 11 21  1  0  0  0  0
 13 12  1  1  0  0  0
 13 14  1  0  0  0  0
 14 15  1  6  0  0  0
 15 16  1  0  0  0  0
 16 17  1  0  0  0  0
 16 18  1  0  0  0  0
 16 19  1  0  0  0  0
M  END
> <Acceptable>
true

> <IC50>
N/A

$$$$

Generated by Molecular Materials Informatics

 29 31  0  0  0  0  0  0  0  0999 V2000
   -5.5426    0.0000    0.0000 Cl  0  0  0  0  0  0  0  0  0  0  0  0
   -4.1569   -0.8000    0.0000 C   0  0  0  0  0  0  0  0  0  0  0  0
   -2.7713    0.0000    0.0000 C   0  0  0  0  0  0  0  0  0  0  0  0
   -1.3856   -0.8000    0.0000 C   0  0  0  0  0  0  0  0  0  0  0  0
   -1.3856   -2.4000    0.0000 C   0  0  0  0  0  0  0  0  0  0  0  0
    0.0000   -3.2000    0.0000 C   0  0  0  0  0  0  0  0  0  0  0  0
    0.0000   -4.8000    0.0000 C   0  0  0  0  0  0  0  0  0  0  0  0
   -1.3856   -5.6000    0.0000 C   0  0  0  0  0  0  0  0  0  0  0  0
   -2.7713   -4.8000    0.0000 C   0  0  0  0  0  0  0  0  0  0  0  0
   -2.7713   -3.2000    0.0000 C   0  0  0  0  0  0  0  0  0  0  0  0
    0.0000    0.0000    0.0000 C   0  0  0  0  0  0  0  0  0  0  0  0
    0.0000    1.6000    0.0000 C   0  0  0  0  0  0  0  0  0  0  0  0
   -1.3856    2.4000    0.0000 C   0  0  0  0  0  0  0  0  0  0  0  0
   -1.3856    4.0000    0.0000 C   0  0  0  0  0  0  0  0  0  0  0  0
    0.0000    4.8000    0.0000 C   0  0  0  0  0  0  0  0  0  0  0  0
    1.3856    4.0000    0.0000 C   0  0  0  0  0  0  0  0  0  0  0  0
    1.3856    2.4000    0.0000 C   0  0  0  0  0  0  0  0  0  0  0  0
    1.3856   -0.8000    0.0000 C   0  0  0  0  0  0  0  0  0  0  0  0
    2.7713    0.0000    0.0000 C   0  0  0  0  0  0  0  0  0  0  0  0
    4.1569   -0.8000    0.0000 C   0  0  0  0  0  0  0  0  0  0  0  0
    4.1569   -2.4000    0.0000 C   0  0  0  0  0  0  0  0  0  0  0  0
    5.5426   -3.2000    0.0000 O   0  0  0  0  0  0  0  0  0  0  0  0
    6.9282   -2.4000    0.0000 C   0  0  0  0  0  0  0  0  0  0  0  0
    8.3138   -3.2000    0.0000 C   0  0  0  0  0  0  0  0  0  0  0  0
    9.6995   -2.4000    0.0000 N   0  0  0  0  0  0  0  0  0  0  0  0
    9.6995   -0.8000    0.0000 C   0  0  0  0  0  0  0  0  0  0  0  0
   11.0851   -3.2000    0.0000 C   0  0  0  0  0  0  0  0  0  0  0  0
    2.7713   -3.2000    0.0000 C   0  0  0  0  0  0  0  0  0  0  0  0
    1.3856   -2.4000    0.0000 C   0  0  0  0  0  0  0  0  0  0  0  0
  1  2  1  0  0  0  0
  2  3  1  0  0  0  0
  3  4  1  0  0  0  0
  4  5  1  0  0  0  0
  4 11  2  0  0  0  0
  5  6  1  0  0  0  0
  5 10  2  0  0  0  0
  6  7  2  0  0  0  0
  7  8  1  0  0  0  0
  8  9  2  0  0  0  0
  9 10  1  0  0  0  0
 11 12  1  0  0  0  0
 11 18  1  0  0  0  0
 12 13  1  0  0  0  0
 12 17  2  0  0  0  0
 13 14  2  0  0  0  0
 14 15  1  0  0  0  0
 15 16  2  0  0  0  0
 16 17  1  0  0  0  0
 18 19  1  0  0  0  0
 18 29  2  0  0  0  0
 19 20  2  0  0  0  0
 20 21  1  0  0  0  0
 21 22  1  0  0  0  0
 21 28  2  0  0  0  0
 22 23  1  0  0  0  0
 23 24  1  0  0  0  0
 24 25  1  0  0  0  0
 25 26  1  0  0  0  0
 25 27  1  0  0  0  0
 28 29  1  0  0  0  0
M  END
> <Acceptable>
true

> <IC50>
N/A

$$$$

Generated by Molecular Materials Informatics

 24 25  0  0  0  0  0  0  0  0999 V2000
    0.0000    0.0000    0.0000 S   0  0  0  0  0  0  0  0  0  0  0  0
    1.3856    0.8000    0.0000 O   0  0  0  0  0  0  0  0  0  0  0  0
   -1.3856   -0.8000    0.0000 O   0  0  0  0  0  0  0  0  0  0  0  0
   -0.8000    1.3856    0.0000 N   0  0  0  0  0  0  0  0  0  0  0  0
   -2.4000    1.3856    0.0000 C   0  0  0  0  0  0  0  0  0  0  0  0
   -3.2000    0.0000    0.0000 O   0  0  0  0  0  0  0  0  0  0  0  0
   -3.2000    2.7713    0.0000 N   0  0  0  0  0  0  0  0  0  0  0  0
   -4.8000    2.7713    0.0000 C   0  0  0  0  0  0  0  0  0  0  0  0
   -5.6000    1.3856    0.0000 C   0  0  0  0  0  0  0  0  0  0  0  0
   -5.6000    4.1569    0.0000 C   0  0  0  0  0  0  0  0  0  0  0  0
    0.8000   -1.3856    0.0000 C   0  0  0  0  0  0  0  0  0  0  0  0
    0.0000   -2.7713    0.0000 C   0  0  0  0  0  0  0  0  0  0  0  0
    0.8000   -4.1569    0.0000 N   0  0  0  0  0  0  0  0  0  0  0  0
    2.4000   -4.1569    0.0000 C   0  0  0  0  0  0  0  0  0  0  0  0
    3.2000   -2.7713    0.0000 C   0  0  0  0  0  0  0  0  0  0  0  0
    2.4000   -1.3856    0.0000 C   0  0  0  0  0  0  0  0  0  0  0  0
    3.2000    0.0000    0.0000 N   0  0  0  0  0  0  0  0  0  0  0  0
    4.8000    0.0000    0.0000 C   0  0  0  0  0  0  0  0  0  0  0  0
    5.6000   -1.3856    0.0000 C   0  0  0  0  0  0  0  0  0  0  0  0
    7.2000   -1.3856    0.0000 C   0  0  0  0  0  0  0  0  0  0  0  0
    8.0000    0.0000    0.0000 C   0  0  0  0  0  0  0  0  0  0  0  0
    7.2000    1.3856    0.0000 C   0  0  0  0  0  0  0  0  0  0  0  0
    8.0000    2.7713    0.0000 C   0  0  0  0  0  0  0  0  0  0  0  0
    5.6000    1.3856    0.0000 C   0  0  0  0  0  0  0  0  0  0  0  0
  1  2  2  0  0  0  0
  1  3  2  0  0  0  0
  1  4  1  0  0  0  0
  1 11  1  0  0  0  0
  4  5  1  0  0  0  0
  5  6  2  0  0  0  0
  5  7  1  0  0  0  0
  7  8  1  0  0  0  0
  8  9  1  0  0  0  0
  8 10  1  0  0  0  0
 11 12  1  0  0  0  0
 11 16  2  0  0  0  0
 12 13  2  0  0  0  0
 13 14  1  0  0  0  0
 14 15  2  0  0  0  0
 15 16  1  0  0  0  0
 16 17  1  0  0  0  0
 17 18  1  0  0  0  0
 18 19  1  0  0  0  0
 18 24  2  0  0  0  0
 19 20  2  0  0  0  0
 20 21  1  0  0  0  0
 21 22  2  0  0  0  0
 22 23  1  0  0  0  0
 22 24  1  0  0  0  0
M  END
> <Acceptable>
true

> <IC50>
N/A

$$$$

Generated by Molecular Materials Informatics

 19 20  0  0  0  0  0  0  0  0999 V2000
   -0.2778    1.5757    0.0000 O   0  0  0  0  0  0  0  0  0  0  0  0
    0.0000    0.0000    0.0000 C   0  0  0  0  0  0  0  0  0  0  0  0
    0.8000   -1.3856    0.0000 C   0  0  0  0  0  0  0  0  0  0  0  0
    0.0000   -2.7713    0.0000 C   0  0  0  0  0  0  0  0  0  0  0  0
   -1.6000   -2.7713    0.0000 C   0  0  0  0  0  0  0  0  0  0  0  0
   -2.4000   -1.3856    0.0000 C   0  0  0  0  0  0  0  0  0  0  0  0
   -1.6000    0.0000    0.0000 C   0  0  0  0  0  0  0  0  0  0  0  0
   -2.4000    1.3856    0.0000 C   0  0  0  0  0  0  0  0  0  0  0  0
   -4.0000    1.3856    0.0000 N   0  0  0  0  0  0  0  0  0  0  0  0
   -4.8000    0.0000    0.0000 C   0  0  0  0  0  0  0  0  0  0  0  0
   -4.8000    2.7713    0.0000 C   0  0  0  0  0  0  0  0  0  0  0  0
    1.5035    0.5472    0.0000 C   0  0  0  0  0  0  0  0  0  0  0  0
    1.7813    2.1229    0.0000 C   0  0  0  0  0  0  0  0  0  0  0  0
    3.2849    2.6702    0.0000 C   0  0  0  0  0  0  0  0  0  0  0  0
    4.5105    1.6417    0.0000 C   0  0  0  0  0  0  0  0  0  0  0  0
    4.2327    0.0660    0.0000 C   0  0  0  0  0  0  0  0  0  0  0  0
    5.4584   -0.9625    0.0000 O   0  0  0  0  0  0  0  0  0  0  0  0
    6.9619   -0.4152    0.0000 C   0  0  0  0  0  0  0  0  0  0  0  0
    2.7292   -0.4812    0.0000 C   0  0  0  0  0  0  0  0  0  0  0  0
  2  1  1  6  0  0  0
  2  3  1  0  0  0  0
  2  7  1  0  0  0  0
  2 12  1  0  0  0  0
  3  4  1  0  0  0  0
  4  5  1  0  0  0  0
  5  6  1  0  0  0  0
  6  7  1  0  0  0  0
  7  8  1  6  0  0  0
  8  9  1  0  0  0  0
  9 10  1  0  0  0  0
  9 11  1  0  0  0  0
 12 13  1  0  0  0  0
 12 19  2  0  0  0  0
 13 14  2  0  0  0  0
 14 15  1  0  0  0  0
 15 16  2  0  0  0  0
 16 17  1  0  0  0  0
 16 19  1  0  0  0  0
 17 18  1  0  0  0  0
M  END
> <Acceptable>
true

> <IC50>
N/A

$$$$

Generated by Molecular Materials Informatics

 10 11  0  0  0  0  0  0  0  0999 V2000
   -2.9856   -0.8000    0.0000 N   0  0  0  0  0  0  0  0  0  0  0  0
   -1.6000    0.0000    0.0000 C   0  0  0  0  0  0  0  0  0  0  0  0
   -0.8000    1.3856    0.0000 C   0  0  0  0  0  0  0  0  0  0  0  0
    0.0000    0.0000    0.0000 C   0  0  0  0  0  0  0  0  0  0  0  0
    1.3856   -0.8000    0.0000 C   0  0  0  0  0  0  0  0  0  0  0  0
    2.7713    0.0000    0.0000 C   0  0  0  0  0  0  0  0  0  0  0  0
    4.1569   -0.8000    0.0000 C   0  0  0  0  0  0  0  0  0  0  0  0
    4.1569   -2.4000    0.0000 C   0  0  0  0  0  0  0  0  0  0  0  0
    2.7713   -3.2000    0.0000 C   0  0  0  0  0  0  0  0  0  0  0  0
    1.3856   -2.4000    0.0000 C   0  0  0  0  0  0  0  0  0  0  0  0
  2  1  1  6  0  0  0
  2  3  1  0  0  0  0
  2  4  1  0  0  0  0
  3  4  1  0  0  0  0
  4  5  1  1  0  0  0
  5  6  1  0  0  0  0
  5 10  2  0  0  0  0
  6  7  2  0  0  0  0
  7  8  1  0  0  0  0
  8  9  2  0  0  0  0
  9 10  1  0  0  0  0
M  END
> <Acceptable>
true

> <IC50>
N/A

$$$$

Generated by Molecular Materials Informatics

 26 29  0  0  0  0  0  0  0  0999 V2000
  -13.6174   -5.8618    0.0000 Cl  0  0  0  0  0  0  0  0  0  0  0  0
   -0.7379    2.7541    0.0000 O   0  0  0  0  0  0  0  0  0  0  0  0
   -8.0748    0.5382    0.0000 N   0  0  0  0  0  0  0  0  0  0  0  0
  -10.8461   -1.0618    0.0000 N   0  0  0  0  0  0  0  0  0  0  0  0
   -2.5323    0.5383    0.0000 N   0  0  0  0  0  0  0  0  0  0  0  0
    0.0000    0.0000    0.0000 N   0  0  0  0  0  0  0  0  0  0  0  0
   -2.3650   -1.0530    0.0000 N   0  0  0  0  0  0  0  0  0  0  0  0
   -8.0748   -1.0618    0.0000 C   0  0  0  0  0  0  0  0  0  0  0  0
   -9.4605    1.3382    0.0000 C   0  0  0  0  0  0  0  0  0  0  0  0
   -9.4605   -1.8618    0.0000 C   0  0  0  0  0  0  0  0  0  0  0  0
  -10.8461    0.5382    0.0000 C   0  0  0  0  0  0  0  0  0  0  0  0
   -6.6892    1.3382    0.0000 C   0  0  0  0  0  0  0  0  0  0  0  0
   -5.3036    0.5382    0.0000 C   0  0  0  0  0  0  0  0  0  0  0  0
   -3.9179    1.3383    0.0000 C   0  0  0  0  0  0  0  0  0  0  0  0
  -12.2318   -1.8618    0.0000 C   0  0  0  0  0  0  0  0  0  0  0  0
  -12.2318   -3.4618    0.0000 C   0  0  0  0  0  0  0  0  0  0  0  0
  -13.6174   -1.0618    0.0000 C   0  0  0  0  0  0  0  0  0  0  0  0
   -1.0706    1.1890    0.0000 C   0  0  0  0  0  0  0  0  0  0  0  0
   -0.8000   -1.3856    0.0000 C   0  0  0  0  0  0  0  0  0  0  0  0
  -13.6174   -4.2618    0.0000 C   0  0  0  0  0  0  0  0  0  0  0  0
  -15.0030   -1.8618    0.0000 C   0  0  0  0  0  0  0  0  0  0  0  0
  -15.0030   -3.4618    0.0000 C   0  0  0  0  0  0  0  0  0  0  0  0
    1.6000    0.0000    0.0000 C   0  0  0  0  0  0  0  0  0  0  0  0
    0.0000   -2.7713    0.0000 C   0  0  0  0  0  0  0  0  0  0  0  0
    2.4000   -1.3856    0.0000 C   0  0  0  0  0  0  0  0  0  0  0  0
    1.6000   -2.7713    0.0000 C   0  0  0  0  0  0  0  0  0  0  0  0
  1 20  1  0  0  0  0
  2 18  2  0  0  0  0
  3  8  1  0  0  0  0
  3  9  1  0  0  0  0
  3 12  1  0  0  0  0
  4 10  1  0  0  0  0
  4 11  1  0  0  0  0
  4 15  1  0  0  0  0
  5  7  1  0  0  0  0
  5 14  1  0  0  0  0
  5 18  1  0  0  0  0
  6 18  1  0  0  0  0
  6 19  1  0  0  0  0
  6 23  1  0  0  0  0
  7 19  2  0  0  0  0
  8 10  1  0  0  0  0
  9 11  1  0  0  0  0
 12 13  1  0  0  0  0
 13 14  1  0  0  0  0
 15 16  2  0  0  0  0
 15 17  1  0  0  0  0
 16 20  1  0  0  0  0
 17 21  2  0  0  0  0
 19 24  1  0  0  0  0
 20 22  2  0  0  0  0
 21 22  1  0  0  0  0
 23 25  2  0  0  0  0
 24 26  2  0  0  0  0
 25 26  1  0  0  0  0
M  END
> <Acceptable>
false

> <IC50>
2.9

$$$$

Generated by Molecular Materials Informatics

 19 21  0  0  0  0  0  0  0  0999 V2000
   -4.1569   -2.4000    0.0000 N   0  0  0  0  0  0  0  0  0  0  0  0
   -2.7713   -1.6000    0.0000 C   0  0  0  0  0  0  0  0  0  0  0  0
   -2.7713    0.0000    0.0000 N   0  0  0  0  0  0  0  0  0  0  0  0
   -1.3856    0.8000    0.0000 C   0  0  0  0  0  0  0  0  0  0  0  0
   -1.3856    2.4000    0.0000 N   0  0  0  0  0  0  0  0  0  0  0  0
    0.0000    0.0000    0.0000 C   0  0  0  0  0  0  0  0  0  0  0  0
    1.3856    0.8000    0.0000 N   0  0  0  0  0  0  0  0  0  0  0  0
    2.7713    0.0000    0.0000 C   0  0  0  0  0  0  0  0  0  0  0  0
    2.7713   -1.6000    0.0000 C   0  0  0  0  0  0  0  0  0  0  0  0
    4.1569   -2.4000    0.0000 N   0  0  0  0  0  0  0  0  0  0  0  0
    1.3856   -2.4000    0.0000 N   0  0  0  0  0  0  0  0  0  0  0  0
    0.0000   -1.6000    0.0000 C   0  0  0  0  0  0  0  0  0  0  0  0
   -1.3856   -2.4000    0.0000 N   0  0  0  0  0  0  0  0  0  0  0  0
    4.1569    0.8000    0.0000 C   0  0  0  0  0  0  0  0  0  0  0  0
    4.1569    2.4000    0.0000 C   0  0  0  0  0  0  0  0  0  0  0  0
    5.5426    3.2000    0.0000 C   0  0  0  0  0  0  0  0  0  0  0  0
    6.9282    2.4000    0.0000 C   0  0  0  0  0  0  0  0  0  0  0  0
    6.9282    0.8000    0.0000 C   0  0  0  0  0  0  0  0  0  0  0  0
    5.5426    0.0000    0.0000 C   0  0  0  0  0  0  0  0  0  0  0  0
  1  2  1  0  0  0  0
  2  3  1  0  0  0  0
  2 13  2  0  0  0  0
  3  4  2  0  0  0  0
  4  5  1  0  0  0  0
  4  6  1  0  0  0  0
  6  7  1  0  0  0  0
  6 12  2  0  0  0  0
  7  8  2  0  0  0  0
  8  9  1  0  0  0  0
  8 14  1  0  0  0  0
  9 10  1  0  0  0  0
  9 11  2  0  0  0  0
 11 12  1  0  0  0  0
 12 13  1  0  0  0  0
 14 15  1  0  0  0  0
 14 19  2  0  0  0  0
 15 16  2  0  0  0  0
 16 17  1  0  0  0  0
 17 18  2  0  0  0  0
 18 19  1  0  0  0  0
M  END
> <Acceptable>
false

> <IC50>
N/A

$$$$

Generated by Molecular Materials Informatics

 23 26  0  0  0  0  0  0  0  0999 V2000
   -4.1569    2.4000    0.0000 Cl  0  0  0  0  0  0  0  0  0  0  0  0
   -2.7713    1.6000    0.0000 C   0  0  0  0  0  0  0  0  0  0  0  0
   -1.3856    2.4000    0.0000 C   0  0  0  0  0  0  0  0  0  0  0  0
    0.0000    1.6000    0.0000 C   0  0  0  0  0  0  0  0  0  0  0  0
    0.0000    0.0000    0.0000 C   0  0  0  0  0  0  0  0  0  0  0  0
    1.4894   -0.5845    0.0000 N   0  0  0  0  0  0  0  0  0  0  0  0
    1.9610   -2.1135    0.0000 C   0  0  0  0  0  0  0  0  0  0  0  0
    3.5608   -2.1374    0.0000 N   0  0  0  0  0  0  0  0  0  0  0  0
    4.0780   -0.6233    0.0000 N   0  0  0  0  0  0  0  0  0  0  0  0
    2.7977    0.3364    0.0000 C   0  0  0  0  0  0  0  0  0  0  0  0
    2.8217    1.9363    0.0000 C   0  0  0  0  0  0  0  0  0  0  0  0
    1.0597   -3.4354    0.0000 C   0  0  0  0  0  0  0  0  0  0  0  0
   -0.5358   -3.5550    0.0000 N   0  0  0  0  0  0  0  0  0  0  0  0
   -1.6241   -2.3821    0.0000 C   0  0  0  0  0  0  0  0  0  0  0  0
   -1.3856   -0.8000    0.0000 C   0  0  0  0  0  0  0  0  0  0  0  0
   -2.7713    0.0000    0.0000 C   0  0  0  0  0  0  0  0  0  0  0  0
   -3.1530   -2.8537    0.0000 C   0  0  0  0  0  0  0  0  0  0  0  0
   -3.5091   -4.4136    0.0000 C   0  0  0  0  0  0  0  0  0  0  0  0
   -5.0380   -4.8852    0.0000 C   0  0  0  0  0  0  0  0  0  0  0  0
   -6.2109   -3.7970    0.0000 C   0  0  0  0  0  0  0  0  0  0  0  0
   -5.8548   -2.2371    0.0000 C   0  0  0  0  0  0  0  0  0  0  0  0
   -4.3259   -1.7655    0.0000 C   0  0  0  0  0  0  0  0  0  0  0  0
   -3.9699   -0.2056    0.0000 Cl  0  0  0  0  0  0  0  0  0  0  0  0
  1  2  1  0  0  0  0
  2  3  1  0  0  0  0
  2 16  2  0  0  0  0
  3  4  2  0  0  0  0
  4  5  1  0  0  0  0
  5  6  1  0  0  0  0
  5 15  2  0  0  0  0
  6  7  1  0  0  0  0
  6 10  1  0  0  0  0
  7  8  2  0  0  0  0
  7 12  1  0  0  0  0
  8  9  1  0  0  0  0
  9 10  2  0  0  0  0
 10 11  1  0  0  0  0
 12 13  1  0  0  0  0
 13 14  2  0  0  0  0
 14 15  1  0  0  0  0
 14 17  1  0  0  0  0
 15 16  1  0  0  0  0
 17 18  1  0  0  0  0
 17 22  2  0  0  0  0
 18 19  2  0  0  0  0
 19 20  1  0  0  0  0
 20 21  2  0  0  0  0
 21 22  1  0  0  0  0
 22 23  1  0  0  0  0
M  END
> <Acceptable>
true

> <IC50>
50.1

$$$$

Generated by Molecular Materials Informatics

 28 31  0  0  0  0  0  0  0  0999 V2000
    0.0000    0.0000    0.0000 C   0  0  0  0  0  0  0  0  0  0  0  0
    1.6000    0.0000    0.0000 N   0  0  0  0  0  0  0  0  0  0  0  0
   -0.8000   -1.3856    0.0000 C   0  0  0  0  0  0  0  0  0  0  0  0
   -0.8000    1.3856    0.0000 C   0  0  0  0  0  0  0  0  0  0  0  0
    2.4000   -1.3856    0.0000 C   0  0  0  0  0  0  0  0  0  0  0  0
    2.4000    1.3856    0.0000 C   0  0  0  0  0  0  0  0  0  0  0  0
    0.0000   -2.7713    0.0000 S   0  0  0  0  0  0  0  0  0  0  0  0
   -2.4000   -1.3856    0.0000 C   0  0  0  0  0  0  0  0  0  0  0  0
   -2.4000    1.3856    0.0000 C   0  0  0  0  0  0  0  0  0  0  0  0
    1.6000   -2.7713    0.0000 C   0  0  0  0  0  0  0  0  0  0  0  0
    4.0000   -1.3856    0.0000 C   0  0  0  0  0  0  0  0  0  0  0  0
    4.0000    1.3856    0.0000 C   0  0  0  0  0  0  0  0  0  0  0  0
   -3.2000    0.0000    0.0000 C   0  0  0  0  0  0  0  0  0  0  0  0
   -3.2000    2.7713    0.0000 C   0  0  0  0  0  0  0  0  0  0  0  0
    2.4000   -4.1569    0.0000 C   0  0  0  0  0  0  0  0  0  0  0  0
    4.8000   -2.7713    0.0000 C   0  0  0  0  0  0  0  0  0  0  0  0
    4.8000    2.7713    0.0000 C   0  0  0  0  0  0  0  0  0  0  0  0
   -2.4000    4.1569    0.0000 F   0  0  0  0  0  0  0  0  0  0  0  0
   -4.8000    2.7713    0.0000 F   0  0  0  0  0  0  0  0  0  0  0  0
   -4.0000    4.1569    0.0000 F   0  0  0  0  0  0  0  0  0  0  0  0
    4.0000   -4.1569    0.0000 C   0  0  0  0  0  0  0  0  0  0  0  0
    6.4000    2.7713    0.0000 N   0  0  0  0  0  0  0  0  0  0  0  0
    7.2000    4.1569    0.0000 C   0  0  0  0  0  0  0  0  0  0  0  0
    7.2000    1.3856    0.0000 C   0  0  0  0  0  0  0  0  0  0  0  0
    8.8000    4.1569    0.0000 C   0  0  0  0  0  0  0  0  0  0  0  0
    8.8000    1.3856    0.0000 C   0  0  0  0  0  0  0  0  0  0  0  0
    9.6000    2.7713    0.0000 N   0  0  0  0  0  0  0  0  0  0  0  0
   11.2000    2.7713    0.0000 C   0  0  0  0  0  0  0  0  0  0  0  0
  1  2  1  0  0  0  0
  1  3  2  0  0  0  0
  1  4  1  0  0  0  0
  2  5  1  0  0  0  0
  2  6  1  0  0  0  0
  3  7  1  0  0  0  0
  3  8  1  0  0  0  0
  4  9  2  0  0  0  0
  5 10  2  0  0  0  0
  5 11  1  0  0  0  0
  6 12  1  0  0  0  0
  7 10  1  0  0  0  0
  8 13  2  0  0  0  0
  9 13  1  0  0  0  0
  9 14  1  0  0  0  0
 10 15  1  0  0  0  0
 11 16  2  0  0  0  0
 12 17  1  0  0  0  0
 14 18  1  0  0  0  0
 14 19  1  0  0  0  0
 14 20  1  0  0  0  0
 15 21  2  0  0  0  0
 16 21  1  0  0  0  0
 22 17  1  6  0  0  0
 22 23  1  0  0  0  0
 22 24  1  0  0  0  0
 23 25  1  0  0  0  0
 24 26  1  0  0  0  0
 25 27  1  0  0  0  0
 26 27  1  0  0  0  0
 27 28  1  1  0  0  0
M  END
> <Acceptable>
false

> <IC50>
3.58

$$$$

Generated by Molecular Materials Informatics

 22 24  0  0  0  0  0  0  0  0999 V2000
   -1.3856   -0.8000    0.0000 O   0  0  0  0  0  0  0  0  0  0  0  0
    0.0000    0.0000    0.0000 C   0  0  0  0  0  0  0  0  0  0  0  0
    1.3856    0.8000    0.0000 C   0  0  0  0  0  0  0  0  0  0  0  0
    2.7713    0.0000    0.0000 C   0  0  0  0  0  0  0  0  0  0  0  0
    4.1569    0.8000    0.0000 N   0  0  0  0  0  0  0  0  0  0  0  0
    4.1569    2.4000    0.0000 C   0  0  0  0  0  0  0  0  0  0  0  0
    5.5426    3.2000    0.0000 C   0  0  0  0  0  0  0  0  0  0  0  0
    6.9282    2.4000    0.0000 C   0  0  0  0  0  0  0  0  0  0  0  0
    6.9282    0.8000    0.0000 C   0  0  0  0  0  0  0  0  0  0  0  0
    5.5426    0.0000    0.0000 C   0  0  0  0  0  0  0  0  0  0  0  0
    0.8000   -1.3856    0.0000 C   0  0  0  0  0  0  0  0  0  0  0  0
    2.4000   -1.3856    0.0000 C   0  0  0  0  0  0  0  0  0  0  0  0
    3.2000   -2.7713    0.0000 C   0  0  0  0  0  0  0  0  0  0  0  0
    2.4000   -4.1569    0.0000 C   0  0  0  0  0  0  0  0  0  0  0  0
    0.8000   -4.1569    0.0000 C   0  0  0  0  0  0  0  0  0  0  0  0
    0.0000   -2.7713    0.0000 C   0  0  0  0  0  0  0  0  0  0  0  0
   -0.8000    1.3856    0.0000 C   0  0  0  0  0  0  0  0  0  0  0  0
   -2.4000    1.3856    0.0000 C   0  0  0  0  0  0  0  0  0  0  0  0
   -3.2000    2.7713    0.0000 C   0  0  0  0  0  0  0  0  0  0  0  0
   -2.4000    4.1569    0.0000 C   0  0  0  0  0  0  0  0  0  0  0  0
   -0.8000    4.1569    0.0000 C   0  0  0  0  0  0  0  0  0  0  0  0
    0.0000    2.7713    0.0000 C   0  0  0  0  0  0  0  0  0  0  0  0
  2  1  1  1  0  0  0
  2  3  1  0  0  0  0
  2 11  1  0  0  0  0
  2 17  1  0  0  0  0
  3  4  1  0  0  0  0
  4  5  1  0  0  0  0
  5  6  1  0  0  0  0
  5 10  1  0  0  0  0
  6  7  1  0  0  0  0
  7  8  1  0  0  0  0
  8  9  1  0  0  0  0
  9 10  1  0  0  0  0
 11 12  1  0  0  0  0
 11 16  2  0  0  0  0
 12 13  2  0  0  0  0
 13 14  1  0  0  0  0
 14 15  2  0  0  0  0
 15 16  1  0  0  0  0
 17 18  1  0  0  0  0
 17 22  1  0  0  0  0
 18 19  1  0  0  0  0
 19 20  1  0  0  0  0
 20 21  1  0  0  0  0
 21 22  1  0  0  0  0
M  END
> <Acceptable>
true

> <IC50>
N/A

$$$$

Generated by Molecular Materials Informatics

 28 29  0  0  0  0  0  0  0  0999 V2000
    4.1569    2.4000    0.0000 O   0  0  0  0  0  0  0  0  0  0  0  0
    4.1569    0.8000    0.0000 C   0  0  0  0  0  0  0  0  0  0  0  0
    2.7713    0.0000    0.0000 O   0  0  0  0  0  0  0  0  0  0  0  0
    1.3856    0.8000    0.0000 C   0  0  0  0  0  0  0  0  0  0  0  0
    0.0000    0.0000    0.0000 C   0  0  0  0  0  0  0  0  0  0  0  0
   -0.8000    1.3856    0.0000 N   0  0  0  0  0  0  0  0  0  0  0  0
   -2.4000    1.3856    0.0000 C   0  0  0  0  0  0  0  0  0  0  0  0
    0.0000    2.7713    0.0000 C   0  0  0  0  0  0  0  0  0  0  0  0
    0.8000   -1.3856    0.0000 C   0  0  0  0  0  0  0  0  0  0  0  0
    0.0000   -2.7713    0.0000 C   0  0  0  0  0  0  0  0  0  0  0  0
   -1.3856   -0.8000    0.0000 C   0  0  0  0  0  0  0  0  0  0  0  0
   -2.7713    0.0000    0.0000 C   0  0  0  0  0  0  0  0  0  0  0  0
   -4.1569   -0.8000    0.0000 C   0  0  0  0  0  0  0  0  0  0  0  0
   -4.1569   -2.4000    0.0000 C   0  0  0  0  0  0  0  0  0  0  0  0
   -2.7713   -3.2000    0.0000 C   0  0  0  0  0  0  0  0  0  0  0  0
   -1.3856   -2.4000    0.0000 C   0  0  0  0  0  0  0  0  0  0  0  0
    5.5426    0.0000    0.0000 C   0  0  0  0  0  0  0  0  0  0  0  0
    5.5426   -1.6000    0.0000 C   0  0  0  0  0  0  0  0  0  0  0  0
    6.9282   -2.4000    0.0000 C   0  0  0  0  0  0  0  0  0  0  0  0
    6.9282   -4.0000    0.0000 O   0  0  0  0  0  0  0  0  0  0  0  0
    5.5426   -4.8000    0.0000 C   0  0  0  0  0  0  0  0  0  0  0  0
    8.3138   -1.6000    0.0000 C   0  0  0  0  0  0  0  0  0  0  0  0
    9.6995   -2.4000    0.0000 O   0  0  0  0  0  0  0  0  0  0  0  0
   11.0851   -1.6000    0.0000 C   0  0  0  0  0  0  0  0  0  0  0  0
    8.3138    0.0000    0.0000 C   0  0  0  0  0  0  0  0  0  0  0  0
    9.6995    0.8000    0.0000 O   0  0  0  0  0  0  0  0  0  0  0  0
    9.6995    2.4000    0.0000 C   0  0  0  0  0  0  0  0  0  0  0  0
    6.9282    0.8000    0.0000 C   0  0  0  0  0  0  0  0  0  0  0  0
  1  2  2  0  0  0  0
  2  3  1  0  0  0  0
  2 17  1  0  0  0  0
  3  4  1  0  0  0  0
  4  5  1  0  0  0  0
  5  6  1  0  0  0  0
  5  9  1  0  0  0  0
  5 11  1  1  0  0  0
  6  7  1  0  0  0  0
  6  8  1  0  0  0  0
  9 10  1  0  0  0  0
 11 12  1  0  0  0  0
 11 16  2  0  0  0  0
 12 13  2  0  0  0  0
 13 14  1  0  0  0  0
 14 15  2  0  0  0  0
 15 16  1  0  0  0  0
 17 18  1  0  0  0  0
 17 28  2  0  0  0  0
 18 19  2  0  0  0  0
 19 20  1  0  0  0  0
 19 22  1  0  0  0  0
 20 21  1  0  0  0  0
 22 23  1  0  0  0  0
 22 25  2  0  0  0  0
 23 24  1  0  0  0  0
 25 26  1  0  0  0  0
 25 28  1  0  0  0  0
 26 27  1  0  0  0  0
M  END
> <Acceptable>
true

> <IC50>
89.12

$$$$

Generated by Molecular Materials Informatics

 26 30  0  0  0  0  0  0  0  0999 V2000
   -2.5889    0.0000    0.0000 S   0  3  0  0  0  0  0  0  0  0  0  0
    3.6161   -2.0161    0.0000 O   0  0  0  0  0  0  0  0  0  0  0  0
    1.6000    0.0000    0.0000 N   0  0  0  0  0  0  0  0  0  0  0  0
    0.8000   -2.4621    0.0000 N   0  0  0  0  0  0  0  0  0  0  0  0
    0.0000    0.0000    0.0000 C   0  0  0  0  0  0  0  0  0  0  0  0
   -1.2944    0.9405    0.0000 C   0  0  0  0  0  0  0  0  0  0  0  0
   -0.4944   -1.5217    0.0000 C   0  0  0  0  0  0  0  0  0  0  0  0
   -2.0944   -1.5217    0.0000 C   0  0  0  0  0  0  0  0  0  0  0  0
   -1.7889    2.4621    0.0000 C   0  0  0  0  0  0  0  0  0  0  0  0
   -3.8833    0.9405    0.0000 C   0  0  0  0  0  0  0  0  0  0  0  0
   -3.3889    2.4621    0.0000 C   0  0  0  0  0  0  0  0  0  0  0  0
    2.0944   -1.5217    0.0000 C   0  0  0  0  0  0  0  0  0  0  0  0
    2.5405    1.2944    0.0000 C   0  0  0  0  0  0  0  0  0  0  0  0
    0.8000   -4.0621    0.0000 C   0  0  0  0  0  0  0  0  0  0  0  0
    4.1317    1.1272    0.0000 C   0  0  0  0  0  0  0  0  0  0  0  0
    2.1856   -4.8621    0.0000 C   0  0  0  0  0  0  0  0  0  0  0  0
    4.7825   -0.3345    0.0000 C   0  0  0  0  0  0  0  0  0  0  0  0
    5.0721    2.4216    0.0000 C   0  0  0  0  0  0  0  0  0  0  0  0
    2.1856   -6.4621    0.0000 C   0  0  0  0  0  0  0  0  0  0  0  0
    3.5713   -4.0621    0.0000 C   0  0  0  0  0  0  0  0  0  0  0  0
    6.3737   -0.5017    0.0000 C   0  0  0  0  0  0  0  0  0  0  0  0
    6.6634    2.2544    0.0000 C   0  0  0  0  0  0  0  0  0  0  0  0
    3.5713   -7.2621    0.0000 C   0  0  0  0  0  0  0  0  0  0  0  0
    4.9569   -4.8621    0.0000 C   0  0  0  0  0  0  0  0  0  0  0  0
    7.3142    0.7927    0.0000 C   0  0  0  0  0  0  0  0  0  0  0  0
    4.9569   -6.4621    0.0000 C   0  0  0  0  0  0  0  0  0  0  0  0
  1  6  1  0  0  0  0
  1  8  1  6  0  0  0
  1 10  1  0  0  0  0
  2 12  2  0  0  0  0
  5  3  1  1  0  0  0
  3 12  1  0  0  0  0
  3 13  1  0  0  0  0
  7  4  1  1  0  0  0
  4 12  1  0  0  0  0
  4 14  1  0  0  0  0
  5  6  1  0  0  0  0
  5  7  1  0  0  0  0
  6  9  1  6  0  0  0
  7  8  1  0  0  0  0
  9 11  1  0  0  0  0
 10 11  1  0  0  0  0
 13 15  1  0  0  0  0
 14 16  1  0  0  0  0
 15 17  2  0  0  0  0
 15 18  1  0  0  0  0
 16 19  2  0  0  0  0
 16 20  1  0  0  0  0
 17 21  1  0  0  0  0
 18 22  2  0  0  0  0
 19 23  1  0  0  0  0
 20 24  2  0  0  0  0
 21 25  2  0  0  0  0
 22 25  1  0  0  0  0
 23 26  2  0  0  0  0
 24 26  1  0  0  0  0
M  CHG  1   1   1
M  END
> <Acceptable>
false

> <IC50>
10

$$$$

Generated by Molecular Materials Informatics

 28 29  0  0  0  0  0  0  0  0999 V2000
   -4.1569    4.0000    0.0000 O   0  0  0  0  0  0  0  0  0  0  0  0
   -4.1569    2.4000    0.0000 C   0  0  0  0  0  0  0  0  0  0  0  0
   -5.5426    1.6000    0.0000 N   0  0  0  0  0  0  0  0  0  0  0  0
   -6.9282    2.4000    0.0000 C   0  0  0  0  0  0  0  0  0  0  0  0
   -8.3138    1.6000    0.0000 C   0  0  0  0  0  0  0  0  0  0  0  0
   -9.6995    2.4000    0.0000 C   0  0  0  0  0  0  0  0  0  0  0  0
  -11.0851    1.6000    0.0000 C   0  0  0  0  0  0  0  0  0  0  0  0
  -11.0851    0.0000    0.0000 C   0  0  0  0  0  0  0  0  0  0  0  0
  -12.4708   -0.8000    0.0000 O   0  0  0  0  0  0  0  0  0  0  0  0
  -13.8564    0.0000    0.0000 C   0  0  0  0  0  0  0  0  0  0  0  0
  -15.2420   -0.8000    0.0000 C   0  0  0  0  0  0  0  0  0  0  0  0
  -16.6277    0.0000    0.0000 N   0  0  0  0  0  0  0  0  0  0  0  0
  -16.6277    1.6000    0.0000 C   0  0  0  0  0  0  0  0  0  0  0  0
  -18.0133   -0.8000    0.0000 C   0  0  0  0  0  0  0  0  0  0  0  0
   -9.6995   -0.8000    0.0000 C   0  0  0  0  0  0  0  0  0  0  0  0
   -8.3138    0.0000    0.0000 C   0  0  0  0  0  0  0  0  0  0  0  0
   -2.7713    1.6000    0.0000 C   0  0  0  0  0  0  0  0  0  0  0  0
   -2.7713    0.0000    0.0000 C   0  0  0  0  0  0  0  0  0  0  0  0
   -1.3856   -0.8000    0.0000 C   0  0  0  0  0  0  0  0  0  0  0  0
   -1.3856   -2.4000    0.0000 O   0  0  0  0  0  0  0  0  0  0  0  0
   -2.7713   -3.2000    0.0000 C   0  0  0  0  0  0  0  0  0  0  0  0
    0.0000    0.0000    0.0000 C   0  0  0  0  0  0  0  0  0  0  0  0
    1.3856   -0.8000    0.0000 O   0  0  0  0  0  0  0  0  0  0  0  0
    2.7713    0.0000    0.0000 C   0  0  0  0  0  0  0  0  0  0  0  0
    0.0000    1.6000    0.0000 C   0  0  0  0  0  0  0  0  0  0  0  0
    1.3856    2.4000    0.0000 O   0  0  0  0  0  0  0  0  0  0  0  0
    1.3856    4.0000    0.0000 C   0  0  0  0  0  0  0  0  0  0  0  0
   -1.3856    2.4000    0.0000 C   0  0  0  0  0  0  0  0  0  0  0  0
  1  2  2  0  0  0  0
  2  3  1  0  0  0  0
  2 17  1  0  0  0  0
  3  4  1  0  0  0  0
  4  5  1  0  0  0  0
  5  6  1  0  0  0  0
  5 16  2  0  0  0  0
  6  7  2  0  0  0  0
  7  8  1  0  0  0  0
  8  9  1  0  0  0  0
  8 15  2  0  0  0  0
  9 10  1  0  0  0  0
 10 11  1  0  0  0  0
 11 12  1  0  0  0  0
 12 13  1  0  0  0  0
 12 14  1  0  0  0  0
 15 16  1  0  0  0  0
 17 18  1  0  0  0  0
 17 28  2  0  0  0  0
 18 19  2  0  0  0  0
 19 20  1  0  0  0  0
 19 22  1  0  0  0  0
 20 21  1  0  0  0  0
 22 23  1  0  0  0  0
 22 25  2  0  0  0  0
 23 24  1  0  0  0  0
 25 26  1  0  0  0  0
 25 28  1  0  0  0  0
 26 27  1  0  0  0  0
M  END
> <Acceptable>
true

> <IC50>
N/A

$$$$

Generated by Molecular Materials Informatics

 21 22  0  0  0  0  0  0  0  0999 V2000
   -1.3856    2.4000    0.0000 O   0  0  0  0  0  0  0  0  0  0  0  0
   -1.3856    4.0000    0.0000 C   0  0  0  0  0  0  0  0  0  0  0  0
    0.0000    1.6000    0.0000 C   0  0  0  0  0  0  0  0  0  0  0  0
    1.3856    2.4000    0.0000 C   0  0  0  0  0  0  0  0  0  0  0  0
    2.7713    1.6000    0.0000 C   0  0  0  0  0  0  0  0  0  0  0  0
    2.7713    0.0000    0.0000 C   0  0  0  0  0  0  0  0  0  0  0  0
    1.3856   -0.8000    0.0000 C   0  0  0  0  0  0  0  0  0  0  0  0
    1.3856   -2.4000    0.0000 O   0  0  0  0  0  0  0  0  0  0  0  0
    2.7713   -3.2000    0.0000 C   0  0  0  0  0  0  0  0  0  0  0  0
    0.0000    0.0000    0.0000 C   0  0  0  0  0  0  0  0  0  0  0  0
   -1.3856   -0.8000    0.0000 O   0  0  0  0  0  0  0  0  0  0  0  0
   -2.7713    0.0000    0.0000 C   0  0  0  0  0  0  0  0  0  0  0  0
    4.1569    2.4000    0.0000 C   0  0  0  0  0  0  0  0  0  0  0  0
    5.5426    1.6000    0.0000 C   0  0  0  0  0  0  0  0  0  0  0  0
    6.9282    2.4000    0.0000 C   0  0  0  0  0  0  0  0  0  0  0  0
    8.3138    1.6000    0.0000 N   0  0  0  0  0  0  0  0  0  0  0  0
    8.3138    0.0000    0.0000 C   0  0  0  0  0  0  0  0  0  0  0  0
    9.6995   -0.8000    0.0000 N   0  0  0  0  0  0  0  0  0  0  0  0
    6.9282   -0.8000    0.0000 N   0  0  0  0  0  0  0  0  0  0  0  0
    5.5426    0.0000    0.0000 C   0  0  0  0  0  0  0  0  0  0  0  0
    4.1569   -0.8000    0.0000 N   0  0  0  0  0  0  0  0  0  0  0  0
  1  2  1  0  0  0  0
  1  3  1  0  0  0  0
  3  4  1  0  0  0  0
  3 10  2  0  0  0  0
  4  5  2  0  0  0  0
  5  6  1  0  0  0  0
  5 13  1  0  0  0  0
  6  7  2  0  0  0  0
  7  8  1  0  0  0  0
  7 10  1  0  0  0  0
  8  9  1  0  0  0  0
 10 11  1  0  0  0  0
 11 12  1  0  0  0  0
 13 14  1  0  0  0  0
 14 15  1  0  0  0  0
 14 20  2  0  0  0  0
 15 16  2  0  0  0  0
 16 17  1  0  0  0  0
 17 18  1  0  0  0  0
 17 19  2  0  0  0  0
 19 20  1  0  0  0  0
 20 21  1  0  0  0  0
M  END
> <Acceptable>
true

> <IC50>
239

$$$$

Generated by Molecular Materials Informatics

 22 24  0  0  0  0  0  0  0  0999 V2000
    0.0000    0.0000    0.0000 N   0  0  0  0  0  0  0  0  0  0  0  0
   -1.0883    1.1729    0.0000 C   0  0  0  0  0  0  0  0  0  0  0  0
   -2.6482    0.8169    0.0000 C   0  0  0  0  0  0  0  0  0  0  0  0
   -3.1198   -0.7121    0.0000 C   0  0  0  0  0  0  0  0  0  0  0  0
   -3.7364    1.9897    0.0000 C   0  0  0  0  0  0  0  0  0  0  0  0
   -5.2963    1.6337    0.0000 N   0  0  0  0  0  0  0  0  0  0  0  0
   -5.7679    0.1048    0.0000 C   0  0  0  0  0  0  0  0  0  0  0  0
   -6.3846    2.8066    0.0000 C   0  0  0  0  0  0  0  0  0  0  0  0
   -0.5845   -1.4894    0.0000 C   0  0  0  0  0  0  0  0  0  0  0  0
   -2.1845   -1.4894    0.0000 C   0  0  0  0  0  0  0  0  0  0  0  0
   -2.9845   -2.8750    0.0000 C   0  0  0  0  0  0  0  0  0  0  0  0
   -2.1845   -4.2607    0.0000 C   0  0  0  0  0  0  0  0  0  0  0  0
   -0.5845   -4.2607    0.0000 C   0  0  0  0  0  0  0  0  0  0  0  0
    0.2155   -2.8750    0.0000 C   0  0  0  0  0  0  0  0  0  0  0  0
    1.7976   -3.1135    0.0000 C   0  0  0  0  0  0  0  0  0  0  0  0
    2.9705   -2.0252    0.0000 C   0  0  0  0  0  0  0  0  0  0  0  0
    2.8509   -0.4297    0.0000 C   0  0  0  0  0  0  0  0  0  0  0  0
    4.2924    0.2645    0.0000 C   0  0  0  0  0  0  0  0  0  0  0  0
    4.4120    1.8600    0.0000 C   0  0  0  0  0  0  0  0  0  0  0  0
    3.0900    2.7613    0.0000 C   0  0  0  0  0  0  0  0  0  0  0  0
    1.6485    2.0671    0.0000 C   0  0  0  0  0  0  0  0  0  0  0  0
    1.5289    0.4716    0.0000 C   0  0  0  0  0  0  0  0  0  0  0  0
  1  2  1  0  0  0  0
  1  9  1  0  0  0  0
  1 22  1  0  0  0  0
  2  3  1  0  0  0  0
  3  4  1  6  0  0  0
  3  5  1  0  0  0  0
  5  6  1  0  0  0  0
  6  7  1  0  0  0  0
  6  8  1  0  0  0  0
  9 10  1  0  0  0  0
  9 14  2  0  0  0  0
 10 11  2  0  0  0  0
 11 12  1  0  0  0  0
 12 13  2  0  0  0  0
 13 14  1  0  0  0  0
 14 15  1  0  0  0  0
 15 16  1  0  0  0  0
 16 17  1  0  0  0  0
 17 18  1  0  0  0  0
 17 22  2  0  0  0  0
 18 19  2  0  0  0  0
 19 20  1  0  0  0  0
 20 21  2  0  0  0  0
 21 22  1  0  0  0  0
M  END
> <Acceptable>
false

> <IC50>
N/A

$$$$

Generated by Molecular Materials Informatics

 21 23  0  0  0  0  0  0  0  0999 V2000
   -1.3856    2.4000    0.0000 N   0  0  0  0  0  0  0  0  0  0  0  0
   -2.7713    3.2000    0.0000 C   0  0  0  0  0  0  0  0  0  0  0  0
   -4.1569    2.4000    0.0000 C   0  0  0  0  0  0  0  0  0  0  0  0
   -4.1569    0.8000    0.0000 C   0  0  0  0  0  0  0  0  0  0  0  0
   -2.7713    0.0000    0.0000 C   0  0  0  0  0  0  0  0  0  0  0  0
   -1.3856    0.8000    0.0000 C   0  0  0  0  0  0  0  0  0  0  0  0
    0.0000    0.0000    0.0000 C   0  0  0  0  0  0  0  0  0  0  0  0
    1.3856    0.8000    0.0000 C   0  0  0  0  0  0  0  0  0  0  0  0
    2.7713    0.0000    0.0000 C   0  0  0  0  0  0  0  0  0  0  0  0
    4.1569    0.8000    0.0000 N   0  0  0  0  0  0  0  0  0  0  0  0
    5.6186    0.1492    0.0000 C   0  0  0  0  0  0  0  0  0  0  0  0
    6.6892    1.3383    0.0000 C   0  0  0  0  0  0  0  0  0  0  0  0
    5.8892    2.7239    0.0000 C   0  0  0  0  0  0  0  0  0  0  0  0
    4.3242    2.3912    0.0000 C   0  0  0  0  0  0  0  0  0  0  0  0
    0.0000   -1.6000    0.0000 C   0  0  0  0  0  0  0  0  0  0  0  0
   -1.3856   -2.4000    0.0000 C   0  0  0  0  0  0  0  0  0  0  0  0
   -1.3856   -4.0000    0.0000 C   0  0  0  0  0  0  0  0  0  0  0  0
    0.0000   -4.8000    0.0000 C   0  0  0  0  0  0  0  0  0  0  0  0
    0.0000   -6.4000    0.0000 C   0  0  0  0  0  0  0  0  0  0  0  0
    1.3856   -4.0000    0.0000 C   0  0  0  0  0  0  0  0  0  0  0  0
    1.3856   -2.4000    0.0000 C   0  0  0  0  0  0  0  0  0  0  0  0
  1  2  1  0  0  0  0
  1  6  2  0  0  0  0
  2  3  2  0  0  0  0
  3  4  1  0  0  0  0
  4  5  2  0  0  0  0
  5  6  1  0  0  0  0
  6  7  1  0  0  0  0
  7  8  2  0  0  0  0
  7 15  1  0  0  0  0
  8  9  1  0  0  0  0
  9 10  1  0  0  0  0
 10 11  1  0  0  0  0
 10 14  1  0  0  0  0
 11 12  1  0  0  0  0
 12 13  1  0  0  0  0
 13 14  1  0  0  0  0
 15 16  1  0  0  0  0
 15 21  2  0  0  0  0
 16 17  2  0  0  0  0
 17 18  1  0  0  0  0
 18 19  1  0  0  0  0
 18 20  2  0  0  0  0
 20 21  1  0  0  0  0
M  END
> <Acceptable>
true

> <IC50>
N/A

$$$$

Generated by Molecular Materials Informatics

 28 31  0  0  0  0  0  0  0  0999 V2000
   -7.3191    0.7453    0.0000 O   0  0  0  0  0  0  0  0  0  0  0  0
   -6.9865   -0.8197    0.0000 C   0  0  0  0  0  0  0  0  0  0  0  0
   -8.1755   -1.8903    0.0000 O   0  0  0  0  0  0  0  0  0  0  0  0
   -5.4648   -1.3141    0.0000 C   0  0  0  0  0  0  0  0  0  0  0  0
   -4.2758   -0.2435    0.0000 C   0  0  0  0  0  0  0  0  0  0  0  0
   -2.7541   -0.7380    0.0000 C   0  0  0  0  0  0  0  0  0  0  0  0
   -2.4214   -2.3030    0.0000 C   0  0  0  0  0  0  0  0  0  0  0  0
   -1.5650    0.3327    0.0000 C   0  0  0  0  0  0  0  0  0  0  0  0
   -1.7323    1.9239    0.0000 C   0  0  0  0  0  0  0  0  0  0  0  0
   -0.2706    2.5747    0.0000 C   0  0  0  0  0  0  0  0  0  0  0  0
    0.8000    1.3856    0.0000 C   0  0  0  0  0  0  0  0  0  0  0  0
    2.4000    1.3856    0.0000 C   0  0  0  0  0  0  0  0  0  0  0  0
    3.2000    2.7713    0.0000 C   0  0  0  0  0  0  0  0  0  0  0  0
    2.4000    4.1569    0.0000 O   0  0  0  0  0  0  0  0  0  0  0  0
    4.8000    2.7713    0.0000 C   0  0  0  0  0  0  0  0  0  0  0  0
    5.6000    1.3856    0.0000 C   0  0  0  0  0  0  0  0  0  0  0  0
    7.2000    1.3856    0.0000 C   0  0  0  0  0  0  0  0  0  0  0  0
    8.0000    0.0000    0.0000 C   0  0  0  0  0  0  0  0  0  0  0  0
    9.6000    0.0000    0.0000 O   0  0  0  0  0  0  0  0  0  0  0  0
    7.2000   -1.3856    0.0000 C   0  0  0  0  0  0  0  0  0  0  0  0
    5.6000   -1.3856    0.0000 C   0  0  0  0  0  0  0  0  0  0  0  0
    4.8000    0.0000    0.0000 C   0  0  0  0  0  0  0  0  0  0  0  0
    4.0000   -1.3856    0.0000 C   0  0  0  0  0  0  0  0  0  0  0  0
    3.2000    0.0000    0.0000 C   0  0  0  0  0  0  0  0  0  0  0  0
    2.4000   -1.3856    0.0000 C   0  0  0  0  0  0  0  0  0  0  0  0
    0.8000   -1.3856    0.0000 C   0  0  0  0  0  0  0  0  0  0  0  0
    0.0000    0.0000    0.0000 C   0  0  0  0  0  0  0  0  0  0  0  0
   -0.9405   -1.2944    0.0000 C   0  0  0  0  0  0  0  0  0  0  0  0
  1  2  2  0  0  0  0
  2  3  1  0  0  0  0
  2  4  1  0  0  0  0
  4  5  1  0  0  0  0
  5  6  1  0  0  0  0
  6  7  1  1  0  0  0
  6  8  1  0  0  0  0
  8  9  1  1  0  0  0
  8 27  1  0  0  0  0
  9 10  1  0  0  0  0
 11 10  1  1  0  0  0
 11 12  1  0  0  0  0
 11 27  1  0  0  0  0
 12 13  1  0  0  0  0
 12 24  1  0  0  0  0
 13 14  1  1  0  0  0
 13 15  1  0  0  0  0
 15 16  1  0  0  0  0
 16 17  1  6  0  0  0
 16 22  1  0  0  0  0
 17 18  1  0  0  0  0
 18 19  1  6  0  0  0
 18 20  1  0  0  0  0
 20 21  1  0  0  0  0
 21 22  1  0  0  0  0
 22 23  1  1  0  0  0
 22 24  1  0  0  0  0
 24 25  1  1  0  0  0
 25 26  1  0  0  0  0
 26 27  1  0  0  0  0
 27 28  1  1  0  0  0
M  END
> <Acceptable>
true

> <IC50>
N/A

$$$$

Generated by Molecular Materials Informatics

 10  9  0  0  0  0  0  0  0  0999 V2000
   -2.4000   -1.3856    0.0000 O   0  0  0  0  0  0  0  0  0  0  0  0
   -1.6000    0.0000    0.0000 C   0  0  0  0  0  0  0  0  0  0  0  0
   -2.4000    1.3856    0.0000 O   0  0  0  0  0  0  0  0  0  0  0  0
    0.0000    0.0000    0.0000 C   0  0  0  0  0  0  0  0  0  0  0  0
    0.8000   -1.3856    0.0000 C   0  0  0  0  0  0  0  0  0  0  0  0
    2.4000   -1.3856    0.0000 C   0  0  0  0  0  0  0  0  0  0  0  0
    3.2000   -2.7713    0.0000 C   0  0  0  0  0  0  0  0  0  0  0  0
    0.8000    1.3856    0.0000 C   0  0  0  0  0  0  0  0  0  0  0  0
    2.4000    1.3856    0.0000 C   0  0  0  0  0  0  0  0  0  0  0  0
    3.2000    2.7713    0.0000 C   0  0  0  0  0  0  0  0  0  0  0  0
  1  2  2  0  0  0  0
  2  3  1  0  0  0  0
  2  4  1  0  0  0  0
  4  5  1  0  0  0  0
  4  8  1  0  0  0  0
  5  6  1  0  0  0  0
  6  7  1  0  0  0  0
  8  9  1  0  0  0  0
  9 10  1  0  0  0  0
M  END
> <Acceptable>
true

> <IC50>
N/A

$$$$

Generated by Molecular Materials Informatics

 32 34  0  0  0  0  0  0  0  0999 V2000
    5.5426    0.0000    0.0000 O   0  0  0  0  0  0  0  0  0  0  0  0
    6.9282    0.8000    0.0000 C   0  0  0  0  0  0  0  0  0  0  0  0
    6.9282    2.4000    0.0000 N   0  0  0  0  0  0  0  0  0  0  0  0
    5.5426    3.2000    0.0000 C   0  0  0  0  0  0  0  0  0  0  0  0
    4.1569    2.4000    0.0000 C   0  0  0  0  0  0  0  0  0  0  0  0
    4.1569    0.8000    0.0000 C   0  0  0  0  0  0  0  0  0  0  0  0
    2.7713    0.0000    0.0000 C   0  0  0  0  0  0  0  0  0  0  0  0
    1.3856    0.8000    0.0000 C   0  0  0  0  0  0  0  0  0  0  0  0
    1.3856    2.4000    0.0000 C   0  0  0  0  0  0  0  0  0  0  0  0
    2.7713    3.2000    0.0000 C   0  0  0  0  0  0  0  0  0  0  0  0
    0.0000    0.0000    0.0000 C   0  0  0  0  0  0  0  0  0  0  0  0
    0.0000   -1.6000    0.0000 C   0  0  0  0  0  0  0  0  0  0  0  0
   -1.3856   -2.4000    0.0000 C   0  0  0  0  0  0  0  0  0  0  0  0
   -2.7713   -1.6000    0.0000 C   0  0  0  0  0  0  0  0  0  0  0  0
   -2.7713    0.0000    0.0000 C   0  0  0  0  0  0  0  0  0  0  0  0
   -1.3856    0.8000    0.0000 C   0  0  0  0  0  0  0  0  0  0  0  0
   -1.3856    2.4000    0.0000 C   0  0  0  0  0  0  0  0  0  0  0  0
   -2.6801    3.3405    0.0000 N   0  0  0  0  0  0  0  0  0  0  0  0
   -2.1856    4.8621    0.0000 N   0  0  0  0  0  0  0  0  0  0  0  0
   -0.5856    4.8621    0.0000 N   0  0  0  0  0  0  0  0  0  0  0  0
   -0.0912    3.3405    0.0000 N   0  0  0  0  0  0  0  0  0  0  0  0
    8.3138    3.2000    0.0000 C   0  0  0  0  0  0  0  0  0  0  0  0
    8.3138    4.8000    0.0000 C   0  0  0  0  0  0  0  0  0  0  0  0
    6.9282    5.6000    0.0000 O   0  0  0  0  0  0  0  0  0  0  0  0
    9.6995    5.6000    0.0000 O   0  0  0  0  0  0  0  0  0  0  0  0
    9.6995    2.4000    0.0000 C   0  0  0  0  0  0  0  0  0  0  0  0
    9.6995    0.8000    0.0000 C   0  0  0  0  0  0  0  0  0  0  0  0
   11.0851    3.2000    0.0000 C   0  0  0  0  0  0  0  0  0  0  0  0
    8.3138    0.0000    0.0000 C   0  0  0  0  0  0  0  0  0  0  0  0
    8.3138   -1.6000    0.0000 C   0  0  0  0  0  0  0  0  0  0  0  0
    9.6995   -2.4000    0.0000 C   0  0  0  0  0  0  0  0  0  0  0  0
    9.6995   -4.0000    0.0000 C   0  0  0  0  0  0  0  0  0  0  0  0
  1  2  2  0  0  0  0
  2  3  1  0  0  0  0
  2 29  1  0  0  0  0
  3  4  1  0  0  0  0
  3 22  1  0  0  0  0
  4  5  1  0  0  0  0
  5  6  1  0  0  0  0
  5 10  2  0  0  0  0
  6  7  2  0  0  0  0
  7  8  1  0  0  0  0
  8  9  2  0  0  0  0
  8 11  1  0  0  0  0
  9 10  1  0  0  0  0
 11 12  1  0  0  0  0
 11 16  2  0  0  0  0
 12 13  2  0  0  0  0
 13 14  1  0  0  0  0
 14 15  2  0  0  0  0
 15 16  1  0  0  0  0
 16 17  1  0  0  0  0
 17 18  1  0  0  0  0
 17 21  2  0  0  0  0
 18 19  2  0  0  0  0
 19 20  1  0  0  0  0
 20 21  1  0  0  0  0
 22 23  1  6  0  0  0
 22 26  1  0  0  0  0
 23 24  2  0  0  0  0
 23 25  1  0  0  0  0
 26 27  1  0  0  0  0
 26 28  1  0  0  0  0
 29 30  1  0  0  0  0
 30 31  1  0  0  0  0
 31 32  1  0  0  0  0
M  END
> <Acceptable>
true

> <IC50>
N/A

$$$$

Generated by Molecular Materials Informatics

 33 36  0  0  0  0  0  0  0  0999 V2000
    0.0000    0.0000    0.0000 C   0  0  0  0  0  0  0  0  0  0  0  0
   -1.3856   -0.8000    0.0000 C   0  0  0  0  0  0  0  0  0  0  0  0
    0.0000    1.6000    0.0000 C   0  0  0  0  0  0  0  0  0  0  0  0
    1.3856   -0.8000    0.0000 O   0  0  0  0  0  0  0  0  0  0  0  0
   -2.7713    0.0000    0.0000 C   0  0  0  0  0  0  0  0  0  0  0  0
   -1.3856   -2.4000    0.0000 C   0  0  0  0  0  0  0  0  0  0  0  0
    1.3856    2.4000    0.0000 C   0  0  0  0  0  0  0  0  0  0  0  0
   -1.3856    2.4000    0.0000 C   0  0  0  0  0  0  0  0  0  0  0  0
    2.7713    0.0000    0.0000 C   0  0  0  0  0  0  0  0  0  0  0  0
   -4.1569   -0.8000    0.0000 C   0  0  0  0  0  0  0  0  0  0  0  0
   -2.7713   -3.2000    0.0000 C   0  0  0  0  0  0  0  0  0  0  0  0
    1.3856    4.0000    0.0000 C   0  0  0  0  0  0  0  0  0  0  0  0
   -1.3856    4.0000    0.0000 C   0  0  0  0  0  0  0  0  0  0  0  0
    4.1569   -0.8000    0.0000 C   0  0  0  0  0  0  0  0  0  0  0  0
   -4.1569   -2.4000    0.0000 C   0  0  0  0  0  0  0  0  0  0  0  0
    0.0000    4.8000    0.0000 C   0  0  0  0  0  0  0  0  0  0  0  0
    5.5426    0.0000    0.0000 N   0  0  0  0  0  0  0  0  0  0  0  0
   -5.5426   -3.2000    0.0000 F   0  0  0  0  0  0  0  0  0  0  0  0
    0.0000    6.4000    0.0000 F   0  0  0  0  0  0  0  0  0  0  0  0
    6.9282   -0.8000    0.0000 C   0  0  0  0  0  0  0  0  0  0  0  0
    5.5426    1.6000    0.0000 C   0  0  0  0  0  0  0  0  0  0  0  0
    8.3138    0.0000    0.0000 C   0  0  0  0  0  0  0  0  0  0  0  0
    6.9282    2.4000    0.0000 C   0  0  0  0  0  0  0  0  0  0  0  0
    8.3138    1.6000    0.0000 N   0  0  0  0  0  0  0  0  0  0  0  0
    9.6995    2.4000    0.0000 C   0  0  0  0  0  0  0  0  0  0  0  0
   11.0851    1.6000    0.0000 C   0  0  0  0  0  0  0  0  0  0  0  0
   12.4708    2.4000    0.0000 C   0  0  0  0  0  0  0  0  0  0  0  0
   13.8564    1.6000    0.0000 C   0  0  0  0  0  0  0  0  0  0  0  0
   13.8564    0.0000    0.0000 C   0  0  0  0  0  0  0  0  0  0  0  0
   15.2420    2.4000    0.0000 C   0  0  0  0  0  0  0  0  0  0  0  0
   15.2420   -0.8000    0.0000 C   0  0  0  0  0  0  0  0  0  0  0  0
   16.6277    1.6000    0.0000 C   0  0  0  0  0  0  0  0  0  0  0  0
   16.6277    0.0000    0.0000 C   0  0  0  0  0  0  0  0  0  0  0  0
  1  2  1  0  0  0  0
  1  3  1  0  0  0  0
  1  4  1  0  0  0  0
  2  5  2  0  0  0  0
  2  6  1  0  0  0  0
  3  7  2  0  0  0  0
  3  8  1  0  0  0  0
  4  9  1  0  0  0  0
  5 10  1  0  0  0  0
  6 11  2  0  0  0  0
  7 12  1  0  0  0  0
  8 13  2  0  0  0  0
  9 14  1  0  0  0  0
 10 15  2  0  0  0  0
 11 15  1  0  0  0  0
 12 16  2  0  0  0  0
 13 16  1  0  0  0  0
 17 14  1  1  0  0  0
 15 18  1  0  0  0  0
 16 19  1  0  0  0  0
 17 20  1  0  0  0  0
 17 21  1  0  0  0  0
 20 22  1  0  0  0  0
 21 23  1  0  0  0  0
 22 24  1  0  0  0  0
 23 24  1  0  0  0  0
 24 25  1  6  0  0  0
 25 26  1  0  0  0  0
 26 27  1  0  0  0  0
 27 28  1  0  0  0  0
 28 29  2  0  0  0  0
 28 30  1  0  0  0  0
 29 31  1  0  0  0  0
 30 32  2  0  0  0  0
 31 33  2  0  0  0  0
 32 33  1  0  0  0  0
M  END
> <Acceptable>
false

> <IC50>
0.007

$$$$

Generated by Molecular Materials Informatics

 34 37  0  0  0  0  0  0  0  0999 V2000
    0.0000    0.0000    0.0000 S   0  0  0  0  0  0  0  0  0  0  0  0
    0.0000   -1.6000    0.0000 O   0  0  0  0  0  0  0  0  0  0  0  0
    0.0000    1.6000    0.0000 O   0  0  0  0  0  0  0  0  0  0  0  0
   -1.6000    0.0000    0.0000 N   0  0  0  0  0  0  0  0  0  0  0  0
   -2.4000   -1.3856    0.0000 C   0  0  0  0  0  0  0  0  0  0  0  0
   -4.0000   -1.3856    0.0000 C   0  0  0  0  0  0  0  0  0  0  0  0
   -4.8000    0.0000    0.0000 N   0  0  0  0  0  0  0  0  0  0  0  0
   -4.0000    1.3856    0.0000 C   0  0  0  0  0  0  0  0  0  0  0  0
   -2.4000    1.3856    0.0000 C   0  0  0  0  0  0  0  0  0  0  0  0
   -6.4000    0.0000    0.0000 C   0  0  0  0  0  0  0  0  0  0  0  0
   -7.2000    1.3856    0.0000 C   0  0  0  0  0  0  0  0  0  0  0  0
    1.6000    0.0000    0.0000 C   0  0  0  0  0  0  0  0  0  0  0  0
    2.4000    1.3856    0.0000 C   0  0  0  0  0  0  0  0  0  0  0  0
    4.0000    1.3856    0.0000 C   0  0  0  0  0  0  0  0  0  0  0  0
    4.8000    0.0000    0.0000 C   0  0  0  0  0  0  0  0  0  0  0  0
    6.4000    0.0000    0.0000 O   0  0  0  0  0  0  0  0  0  0  0  0
    7.2000    1.3856    0.0000 C   0  0  0  0  0  0  0  0  0  0  0  0
    8.8000    1.3856    0.0000 C   0  0  0  0  0  0  0  0  0  0  0  0
    4.0000   -1.3856    0.0000 C   0  0  0  0  0  0  0  0  0  0  0  0
    2.4000   -1.3856    0.0000 C   0  0  0  0  0  0  0  0  0  0  0  0
    4.8000   -2.7713    0.0000 C   0  0  0  0  0  0  0  0  0  0  0  0
    6.4000   -2.7713    0.0000 N   0  0  0  0  0  0  0  0  0  0  0  0
    7.2000   -4.1569    0.0000 C   0  0  0  0  0  0  0  0  0  0  0  0
    8.8000   -4.1569    0.0000 O   0  0  0  0  0  0  0  0  0  0  0  0
    6.4000   -5.5426    0.0000 C   0  0  0  0  0  0  0  0  0  0  0  0
    4.8000   -5.5426    0.0000 N   0  0  0  0  0  0  0  0  0  0  0  0
    4.0000   -4.1569    0.0000 N   0  0  0  0  0  0  0  0  0  0  0  0
    4.3056   -7.0643    0.0000 C   0  0  0  0  0  0  0  0  0  0  0  0
    5.6000   -8.0047    0.0000 N   0  0  0  0  0  0  0  0  0  0  0  0
    6.8944   -7.0643    0.0000 C   0  0  0  0  0  0  0  0  0  0  0  0
    8.4161   -7.5587    0.0000 C   0  0  0  0  0  0  0  0  0  0  0  0
    2.7839   -7.5587    0.0000 C   0  0  0  0  0  0  0  0  0  0  0  0
    2.4512   -9.1237    0.0000 C   0  0  0  0  0  0  0  0  0  0  0  0
    0.9295   -9.6181    0.0000 C   0  0  0  0  0  0  0  0  0  0  0  0
  1  2  2  0  0  0  0
  1  3  2  0  0  0  0
  4  1  1  6  0  0  0
  1 12  1  0  0  0  0
  4  5  1  0  0  0  0
  4  9  1  0  0  0  0
  5  6  1  0  0  0  0
  6  7  1  0  0  0  0
  7  8  1  0  0  0  0
  7 10  1  1  0  0  0
  8  9  1  0  0  0  0
 10 11  1  0  0  0  0
 12 13  1  0  0  0  0
 12 20  2  0  0  0  0
 13 14  2  0  0  0  0
 14 15  1  0  0  0  0
 15 16  1  0  0  0  0
 15 19  2  0  0  0  0
 16 17  1  0  0  0  0
 17 18  1  0  0  0  0
 19 20  1  0  0  0  0
 19 21  1  0  0  0  0
 21 22  2  0  0  0  0
 21 27  1  0  0  0  0
 22 23  1  0  0  0  0
 23 24  2  0  0  0  0
 23 25  1  0  0  0  0
 25 26  1  0  0  0  0
 25 30  2  0  0  0  0
 26 27  1  0  0  0  0
 26 28  1  0  0  0  0
 28 29  2  0  0  0  0
 28 32  1  0  0  0  0
 29 30  1  0  0  0  0
 30 31  1  0  0  0  0
 32 33  1  0  0  0  0
 33 34  1  0  0  0  0
M  END
> <Acceptable>
false

> <IC50>
12.8

$$$$

Generated by Molecular Materials Informatics

 20 21  0  0  0  0  0  0  0  0999 V2000
    1.0285   -1.2257    0.0000 O   0  0  0  0  0  0  0  0  0  0  0  0
    0.0000    0.0000    0.0000 C   0  0  0  0  0  0  0  0  0  0  0  0
   -0.5472    1.5035    0.0000 C   0  0  0  0  0  0  0  0  0  0  0  0
   -2.1229    1.7813    0.0000 C   0  0  0  0  0  0  0  0  0  0  0  0
   -3.1514    0.5557    0.0000 C   0  0  0  0  0  0  0  0  0  0  0  0
   -2.6042   -0.9478    0.0000 C   0  0  0  0  0  0  0  0  0  0  0  0
   -1.0285   -1.2257    0.0000 C   0  0  0  0  0  0  0  0  0  0  0  0
    1.3856    0.8000    0.0000 C   0  0  0  0  0  0  0  0  0  0  0  0
    1.3856    2.4000    0.0000 C   0  0  0  0  0  0  0  0  0  0  0  0
    2.7713    3.2000    0.0000 N   0  0  0  0  0  0  0  0  0  0  0  0
    4.1569    2.4000    0.0000 C   0  0  0  0  0  0  0  0  0  0  0  0
    2.7713    4.8000    0.0000 C   0  0  0  0  0  0  0  0  0  0  0  0
    2.7713    0.0000    0.0000 C   0  0  0  0  0  0  0  0  0  0  0  0
    2.7713   -1.6000    0.0000 C   0  0  0  0  0  0  0  0  0  0  0  0
    4.1569   -2.4000    0.0000 C   0  0  0  0  0  0  0  0  0  0  0  0
    5.5426   -1.6000    0.0000 C   0  0  0  0  0  0  0  0  0  0  0  0
    6.9282   -2.4000    0.0000 O   0  0  0  0  0  0  0  0  0  0  0  0
    8.3138   -1.6000    0.0000 C   0  0  0  0  0  0  0  0  0  0  0  0
    5.5426    0.0000    0.0000 C   0  0  0  0  0  0  0  0  0  0  0  0
    4.1569    0.8000    0.0000 C   0  0  0  0  0  0  0  0  0  0  0  0
  1  2  1  0  0  0  0
  2  3  1  0  0  0  0
  2  7  1  0  0  0  0
  2  8  1  0  0  0  0
  3  4  1  0  0  0  0
  4  5  1  0  0  0  0
  5  6  1  0  0  0  0
  6  7  1  0  0  0  0
  8  9  1  6  0  0  0
  8 13  1  0  0  0  0
  9 10  1  0  0  0  0
 10 11  1  0  0  0  0
 10 12  1  0  0  0  0
 13 14  1  0  0  0  0
 13 20  2  0  0  0  0
 14 15  2  0  0  0  0
 15 16  1  0  0  0  0
 16 17  1  0  0  0  0
 16 19  2  0  0  0  0
 17 18  1  0  0  0  0
 19 20  1  0  0  0  0
M  END
> <Acceptable>
false

> <IC50>
N/A

$$$$

Generated by Molecular Materials Informatics

 33 34  0  0  0  0  0  0  0  0999 V2000
  -13.8564   -3.2000    0.0000 O   0  0  0  0  0  0  0  0  0  0  0  0
  -13.8564   -4.8000    0.0000 C   0  0  0  0  0  0  0  0  0  0  0  0
  -12.4708   -2.4000    0.0000 C   0  0  0  0  0  0  0  0  0  0  0  0
  -11.0851   -3.2000    0.0000 C   0  0  0  0  0  0  0  0  0  0  0  0
   -9.6995   -2.4000    0.0000 C   0  0  0  0  0  0  0  0  0  0  0  0
   -9.6995   -0.8000    0.0000 C   0  0  0  0  0  0  0  0  0  0  0  0
  -11.0851    0.0000    0.0000 C   0  0  0  0  0  0  0  0  0  0  0  0
  -12.4708   -0.8000    0.0000 C   0  0  0  0  0  0  0  0  0  0  0  0
  -13.8564    0.0000    0.0000 O   0  0  0  0  0  0  0  0  0  0  0  0
  -13.8564    1.6000    0.0000 C   0  0  0  0  0  0  0  0  0  0  0  0
   -8.3138    0.0000    0.0000 C   0  0  0  0  0  0  0  0  0  0  0  0
   -6.9282   -0.8000    0.0000 C   0  0  0  0  0  0  0  0  0  0  0  0
   -5.5426    0.0000    0.0000 N   0  0  0  0  0  0  0  0  0  0  0  0
   -5.5426    1.6000    0.0000 C   0  0  0  0  0  0  0  0  0  0  0  0
   -4.1569   -0.8000    0.0000 C   0  0  0  0  0  0  0  0  0  0  0  0
   -2.7713    0.0000    0.0000 C   0  0  0  0  0  0  0  0  0  0  0  0
   -1.3856   -0.8000    0.0000 C   0  0  0  0  0  0  0  0  0  0  0  0
    0.0000    0.0000    0.0000 C   0  0  0  0  0  0  0  0  0  0  0  0
    1.3856    0.8000    0.0000 C   0  0  0  0  0  0  0  0  0  0  0  0
    2.7713    1.6000    0.0000 N   0  0  0  0  0  0  0  0  0  0  0  0
    0.8000   -1.3856    0.0000 C   0  0  0  0  0  0  0  0  0  0  0  0
    0.0000   -2.7713    0.0000 C   0  0  0  0  0  0  0  0  0  0  0  0
    0.8000   -4.1569    0.0000 C   0  0  0  0  0  0  0  0  0  0  0  0
    2.4000   -4.1569    0.0000 C   0  0  0  0  0  0  0  0  0  0  0  0
    3.2000   -5.5426    0.0000 O   0  0  0  0  0  0  0  0  0  0  0  0
    2.4000   -6.9282    0.0000 C   0  0  0  0  0  0  0  0  0  0  0  0
    3.2000   -2.7713    0.0000 C   0  0  0  0  0  0  0  0  0  0  0  0
    4.8000   -2.7713    0.0000 O   0  0  0  0  0  0  0  0  0  0  0  0
    5.6000   -1.3856    0.0000 C   0  0  0  0  0  0  0  0  0  0  0  0
    2.4000   -1.3856    0.0000 C   0  0  0  0  0  0  0  0  0  0  0  0
   -0.8000    1.3856    0.0000 C   0  0  0  0  0  0  0  0  0  0  0  0
    0.0000    2.7713    0.0000 C   0  0  0  0  0  0  0  0  0  0  0  0
   -2.4000    1.3856    0.0000 C   0  0  0  0  0  0  0  0  0  0  0  0
  1  2  1  0  0  0  0
  1  3  1  0  0  0  0
  3  4  1  0  0  0  0
  3  8  2  0  0  0  0
  4  5  2  0  0  0  0
  5  6  1  0  0  0  0
  6  7  2  0  0  0  0
  6 11  1  0  0  0  0
  7  8  1  0  0  0  0
  8  9  1  0  0  0  0
  9 10  1  0  0  0  0
 11 12  1  0  0  0  0
 12 13  1  0  0  0  0
 13 14  1  6  0  0  0
 13 15  1  0  0  0  0
 15 16  1  0  0  0  0
 16 17  1  0  0  0  0
 17 18  1  0  0  0  0
 18 19  1  0  0  0  0
 18 21  1  0  0  0  0
 18 31  1  6  0  0  0
 19 20  3  0  0  0  0
 21 22  1  0  0  0  0
 21 30  2  0  0  0  0
 22 23  2  0  0  0  0
 23 24  1  0  0  0  0
 24 25  1  0  0  0  0
 24 27  2  0  0  0  0
 25 26  1  0  0  0  0
 27 28  1  0  0  0  0
 27 30  1  0  0  0  0
 28 29  1  0  0  0  0
 31 32  1  0  0  0  0
 31 33  1  0  0  0  0
M  END
> <Acceptable>
false

> <IC50>
0.136

$$$$

Generated by Molecular Materials Informatics

 25 27  0  0  0  0  0  0  0  0999 V2000
    1.5529   -2.3912    0.0000 C   0  0  0  0  0  0  0  0  0  0  0  0
    3.1179   -2.7239    0.0000 C   0  0  0  0  0  0  0  0  0  0  0  0
    3.9179   -1.3383    0.0000 C   0  0  0  0  0  0  0  0  0  0  0  0
    2.8473   -0.1492    0.0000 C   0  0  0  0  0  0  0  0  0  0  0  0
    1.3856   -0.8000    0.0000 N   0  0  0  0  0  0  0  0  0  0  0  0
   -2.7713    1.6000    0.0000 C   0  0  0  0  0  0  0  0  0  0  0  0
   -2.7713    0.0000    0.0000 C   0  0  0  0  0  0  0  0  0  0  0  0
   -1.3856   -0.8000    0.0000 C   0  0  0  0  0  0  0  0  0  0  0  0
    0.0000    0.0000    0.0000 C   0  0  0  0  0  0  0  0  0  0  0  0
    0.0000    1.6000    0.0000 C   0  0  0  0  0  0  0  0  0  0  0  0
   -1.3856    2.4000    0.0000 C   0  0  0  0  0  0  0  0  0  0  0  0
    1.3856    2.4000    0.0000 O   0  0  0  0  0  0  0  0  0  0  0  0
    2.7713    1.6000    0.0000 C   0  0  0  0  0  0  0  0  0  0  0  0
    4.1569    2.4000    0.0000 C   0  0  0  0  0  0  0  0  0  0  0  0
    5.5426    1.6000    0.0000 C   0  0  0  0  0  0  0  0  0  0  0  0
    5.5426    0.0000    0.0000 C   0  0  0  0  0  0  0  0  0  0  0  0
    6.9282   -0.8000    0.0000 C   0  0  0  0  0  0  0  0  0  0  0  0
    8.3138    0.0000    0.0000 C   0  0  0  0  0  0  0  0  0  0  0  0
    8.3138    1.6000    0.0000 C   0  0  0  0  0  0  0  0  0  0  0  0
    6.9282    2.4000    0.0000 C   0  0  0  0  0  0  0  0  0  0  0  0
    9.6995    2.4000    0.0000 O   0  0  0  0  0  0  0  0  0  0  0  0
    9.6995    4.0000    0.0000 C   0  0  0  0  0  0  0  0  0  0  0  0
    9.6995   -0.8000    0.0000 O   0  0  0  0  0  0  0  0  0  0  0  0
    9.6995   -2.4000    0.0000 C   0  0  0  0  0  0  0  0  0  0  0  0
    3.7687   -4.1856    0.0000 O   0  0  0  0  0  0  0  0  0  0  0  0
  1  2  1  0  0  0  0
  5  1  1  6  0  0  0
  2  3  1  0  0  0  0
  2 25  1  1  0  0  0
  3  4  1  0  0  0  0
  4  5  1  0  0  0  0
  5  9  1  0  0  0  0
  6  7  1  0  0  0  0
  6 11  1  0  0  0  0
  7  8  1  0  0  0  0
  9  8  1  6  0  0  0
  9 10  1  0  0  0  0
 10 11  1  0  0  0  0
 10 12  1  1  0  0  0
 12 13  1  0  0  0  0
 13 14  1  0  0  0  0
 14 15  1  0  0  0  0
 15 16  1  0  0  0  0
 15 20  2  0  0  0  0
 16 17  2  0  0  0  0
 17 18  1  0  0  0  0
 18 19  2  0  0  0  0
 18 23  1  0  0  0  0
 19 20  1  0  0  0  0
 19 21  1  0  0  0  0
 21 22  1  0  0  0  0
 23 24  1  0  0  0  0
M  END
> <Acceptable>
false

> <IC50>
21

$$$$

Generated by Molecular Materials Informatics

 29 32  0  0  0  0  0  0  0  0999 V2000
   -4.1569   -2.4000    0.0000 O   0  0  0  0  0  0  0  0  0  0  0  0
   -2.7713   -1.6000    0.0000 C   0  0  0  0  0  0  0  0  0  0  0  0
   -1.3856   -2.4000    0.0000 N   0  0  0  0  0  0  0  0  0  0  0  0
    0.0000   -1.6000    0.0000 C   0  0  0  0  0  0  0  0  0  0  0  0
    1.3856   -2.4000    0.0000 C   0  0  0  0  0  0  0  0  0  0  0  0
    2.7713   -1.6000    0.0000 C   0  0  0  0  0  0  0  0  0  0  0  0
    2.7713    0.0000    0.0000 C   0  0  0  0  0  0  0  0  0  0  0  0
    4.1569    0.8000    0.0000 N   0  0  0  0  0  0  0  0  0  0  0  0
    5.5426    0.0000    0.0000 C   0  0  0  0  0  0  0  0  0  0  0  0
    6.9282    0.8000    0.0000 C   0  0  0  0  0  0  0  0  0  0  0  0
    6.9282    2.4000    0.0000 N   0  0  0  0  0  0  0  0  0  0  0  0
    5.5426    3.2000    0.0000 C   0  0  0  0  0  0  0  0  0  0  0  0
    4.1569    2.4000    0.0000 C   0  0  0  0  0  0  0  0  0  0  0  0
    8.3138    3.2000    0.0000 C   0  0  0  0  0  0  0  0  0  0  0  0
    8.3138    4.8000    0.0000 O   0  0  0  0  0  0  0  0  0  0  0  0
    9.6995    2.4000    0.0000 C   0  0  0  0  0  0  0  0  0  0  0  0
    9.6995    0.8000    0.0000 C   0  0  0  0  0  0  0  0  0  0  0  0
   11.0851    0.0000    0.0000 C   0  0  0  0  0  0  0  0  0  0  0  0
   12.4708    0.8000    0.0000 C   0  0  0  0  0  0  0  0  0  0  0  0
   13.8564    0.0000    0.0000 O   0  0  0  0  0  0  0  0  0  0  0  0
   13.8564   -1.6000    0.0000 C   0  0  0  0  0  0  0  0  0  0  0  0
   12.4708    2.4000    0.0000 C   0  0  0  0  0  0  0  0  0  0  0  0
   13.8564    3.2000    0.0000 O   0  0  0  0  0  0  0  0  0  0  0  0
   13.8564    4.8000    0.0000 C   0  0  0  0  0  0  0  0  0  0  0  0
   11.0851    3.2000    0.0000 C   0  0  0  0  0  0  0  0  0  0  0  0
    1.3856    0.8000    0.0000 C   0  0  0  0  0  0  0  0  0  0  0  0
    0.0000    0.0000    0.0000 C   0  0  0  0  0  0  0  0  0  0  0  0
   -1.3856    0.8000    0.0000 C   0  0  0  0  0  0  0  0  0  0  0  0
   -2.7713    0.0000    0.0000 C   0  0  0  0  0  0  0  0  0  0  0  0
  1  2  2  0  0  0  0
  2  3  1  0  0  0  0
  2 29  1  0  0  0  0
  3  4  1  0  0  0  0
  4  5  1  0  0  0  0
  4 27  2  0  0  0  0
  5  6  2  0  0  0  0
  6  7  1  0  0  0  0
  7  8  1  0  0  0  0
  7 26  2  0  0  0  0
  8  9  1  0  0  0  0
  8 13  1  0  0  0  0
  9 10  1  0  0  0  0
 10 11  1  0  0  0  0
 11 12  1  0  0  0  0
 11 14  1  0  0  0  0
 12 13  1  0  0  0  0
 14 15  2  0  0  0  0
 14 16  1  0  0  0  0
 16 17  1  0  0  0  0
 16 25  2  0  0  0  0
 17 18  2  0  0  0  0
 18 19  1  0  0  0  0
 19 20  1  0  0  0  0
 19 22  2  0  0  0  0
 20 21  1  0  0  0  0
 22 23  1  0  0  0  0
 22 25  1  0  0  0  0
 23 24  1  0  0  0  0
 26 27  1  0  0  0  0
 27 28  1  0  0  0  0
 28 29  1  0  0  0  0
M  END
> <Acceptable>
false

> <IC50>
1.1

$$$$

Generated by Molecular Materials Informatics

 26 30  0  0  0  0  0  0  0  0999 V2000
   -2.4000    4.1569    0.0000 O   0  0  0  0  0  0  0  0  0  0  0  0
   -3.2000    2.7713    0.0000 C   0  0  0  0  0  0  0  0  0  0  0  0
   -4.8000    2.7713    0.0000 O   0  0  0  0  0  0  0  0  0  0  0  0
   -5.6000    4.1569    0.0000 C   0  0  0  0  0  0  0  0  0  0  0  0
   -7.2000    4.1569    0.0000 C   0  0  0  0  0  0  0  0  0  0  0  0
   -2.4000    1.3856    0.0000 C   0  0  0  0  0  0  0  0  0  0  0  0
   -0.8000    1.3856    0.0000 N   0  0  0  0  0  0  0  0  0  0  0  0
    0.4517    2.3823    0.0000 C   0  0  0  0  0  0  0  0  0  0  0  0
    0.4517    3.9823    0.0000 C   0  0  0  0  0  0  0  0  0  0  0  0
    1.8373    4.7823    0.0000 C   0  0  0  0  0  0  0  0  0  0  0  0
    3.2229    3.9823    0.0000 C   0  0  0  0  0  0  0  0  0  0  0  0
    3.2229    2.3823    0.0000 C   0  0  0  0  0  0  0  0  0  0  0  0
    1.8373    1.5823    0.0000 C   0  0  0  0  0  0  0  0  0  0  0  0
    1.6000    0.0000    0.0000 C   0  0  0  0  0  0  0  0  0  0  0  0
    2.4000   -1.3856    0.0000 C   0  0  0  0  0  0  0  0  0  0  0  0
    1.6000   -2.7713    0.0000 C   0  0  0  0  0  0  0  0  0  0  0  0
    0.0000   -2.7713    0.0000 N   0  0  0  0  0  0  0  0  0  0  0  0
   -0.8000   -4.1569    0.0000 C   0  0  0  0  0  0  0  0  0  0  0  0
   -2.4000   -4.1569    0.0000 C   0  0  0  0  0  0  0  0  0  0  0  0
   -3.2000   -2.7713    0.0000 C   0  0  0  0  0  0  0  0  0  0  0  0
   -2.4000   -1.3856    0.0000 C   0  0  0  0  0  0  0  0  0  0  0  0
   -3.2000    0.0000    0.0000 C   0  0  0  0  0  0  0  0  0  0  0  0
   -4.0000   -1.3856    0.0000 C   0  0  0  0  0  0  0  0  0  0  0  0
   -4.8000   -2.7713    0.0000 C   0  0  0  0  0  0  0  0  0  0  0  0
   -0.8000   -1.3856    0.0000 C   0  0  0  0  0  0  0  0  0  0  0  0
    0.0000    0.0000    0.0000 C   0  0  0  0  0  0  0  0  0  0  0  0
  1  2  2  0  0  0  0
  2  3  1  0  0  0  0
  2  6  1  0  0  0  0
  3  4  1  0  0  0  0
  4  5  1  0  0  0  0
  6  7  1  0  0  0  0
  6 22  2  0  0  0  0
  7  8  1  0  0  0  0
  7 26  1  0  0  0  0
  8  9  1  0  0  0  0
  8 13  2  0  0  0  0
  9 10  2  0  0  0  0
 10 11  1  0  0  0  0
 11 12  2  0  0  0  0
 12 13  1  0  0  0  0
 13 14  1  0  0  0  0
 14 15  1  0  0  0  0
 14 26  2  0  0  0  0
 15 16  1  0  0  0  0
 17 16  1  1  0  0  0
 17 18  1  0  0  0  0
 17 25  1  0  0  0  0
 18 19  1  0  0  0  0
 19 20  1  0  0  0  0
 20 21  1  0  0  0  0
 21 22  1  0  0  0  0
 21 23  1  6  0  0  0
 21 25  1  0  0  0  0
 23 24  1  0  0  0  0
 25 26  1  1  0  0  0
M  END
> <Acceptable>
false

> <IC50>
0.032

$$$$

Generated by Molecular Materials Informatics

 33 34  0  0  0  0  0  0  0  0999 V2000
   -1.3856    4.0000    0.0000 O   0  0  0  0  0  0  0  0  0  0  0  0
   -1.3856    2.4000    0.0000 C   0  0  0  0  0  0  0  0  0  0  0  0
   -2.7713    1.6000    0.0000 C   0  0  0  0  0  0  0  0  0  0  0  0
   -4.1569    2.4000    0.0000 C   0  0  0  0  0  0  0  0  0  0  0  0
   -2.7713    0.0000    0.0000 C   0  0  0  0  0  0  0  0  0  0  0  0
   -4.1569   -0.8000    0.0000 C   0  0  0  0  0  0  0  0  0  0  0  0
   -5.5426    0.0000    0.0000 C   0  0  0  0  0  0  0  0  0  0  0  0
   -6.9282   -0.8000    0.0000 C   0  0  0  0  0  0  0  0  0  0  0  0
   -6.9282   -2.4000    0.0000 C   0  0  0  0  0  0  0  0  0  0  0  0
   -8.3138    0.0000    0.0000 C   0  0  0  0  0  0  0  0  0  0  0  0
   -9.6995   -0.8000    0.0000 C   0  0  0  0  0  0  0  0  0  0  0  0
  -11.0851    0.0000    0.0000 C   0  0  0  0  0  0  0  0  0  0  0  0
  -12.4708   -0.8000    0.0000 C   0  0  0  0  0  0  0  0  0  0  0  0
  -12.4708   -2.4000    0.0000 C   0  0  0  0  0  0  0  0  0  0  0  0
  -13.8564    0.0000    0.0000 C   0  0  0  0  0  0  0  0  0  0  0  0
  -15.2420   -0.8000    0.0000 C   0  0  0  0  0  0  0  0  0  0  0  0
  -16.6277    0.0000    0.0000 C   0  0  0  0  0  0  0  0  0  0  0  0
  -18.0133   -0.8000    0.0000 C   0  0  0  0  0  0  0  0  0  0  0  0
  -18.0133   -2.4000    0.0000 C   0  0  0  0  0  0  0  0  0  0  0  0
  -19.3990    0.0000    0.0000 C   0  0  0  0  0  0  0  0  0  0  0  0
  -20.7846   -0.8000    0.0000 C   0  0  0  0  0  0  0  0  0  0  0  0
  -22.1702    0.0000    0.0000 C   0  0  0  0  0  0  0  0  0  0  0  0
  -23.5559   -0.8000    0.0000 C   0  0  0  0  0  0  0  0  0  0  0  0
  -23.5559   -2.4000    0.0000 C   0  0  0  0  0  0  0  0  0  0  0  0
  -24.9415    0.0000    0.0000 C   0  0  0  0  0  0  0  0  0  0  0  0
   -1.3856   -0.8000    0.0000 C   0  0  0  0  0  0  0  0  0  0  0  0
   -1.3856   -2.4000    0.0000 O   0  0  0  0  0  0  0  0  0  0  0  0
    0.0000    0.0000    0.0000 C   0  0  0  0  0  0  0  0  0  0  0  0
    1.3856   -0.8000    0.0000 C   0  0  0  0  0  0  0  0  0  0  0  0
    2.7713    0.0000    0.0000 C   0  0  0  0  0  0  0  0  0  0  0  0
    2.7713    1.6000    0.0000 C   0  0  0  0  0  0  0  0  0  0  0  0
    1.3856    2.4000    0.0000 C   0  0  0  0  0  0  0  0  0  0  0  0
    0.0000    1.6000    0.0000 C   0  0  0  0  0  0  0  0  0  0  0  0
  1  2  2  0  0  0  0
  2  3  1  0  0  0  0
  2 33  1  0  0  0  0
  3  4  1  0  0  0  0
  3  5  2  0  0  0  0
  5  6  1  0  0  0  0
  5 26  1  0  0  0  0
  6  7  1  0  0  0  0
  7  8  2  0  0  0  0
  8  9  1  0  0  0  0
  8 10  1  0  0  0  0
 10 11  1  0  0  0  0
 11 12  1  0  0  0  0
 12 13  1  0  0  0  0
 13 14  1  6  0  0  0
 13 15  1  0  0  0  0
 15 16  1  0  0  0  0
 16 17  1  0  0  0  0
 17 18  1  0  0  0  0
 18 19  1  6  0  0  0
 18 20  1  0  0  0  0
 20 21  1  0  0  0  0
 21 22  1  0  0  0  0
 22 23  1  0  0  0  0
 23 24  1  0  0  0  0
 23 25  1  0  0  0  0
 26 27  2  0  0  0  0
 26 28  1  0  0  0  0
 28 29  1  0  0  0  0
 28 33  2  0  0  0  0
 29 30  2  0  0  0  0
 30 31  1  0  0  0  0
 31 32  2  0  0  0  0
 32 33  1  0  0  0  0
M  END
> <Acceptable>
false

> <IC50>
5.75

$$$$

Generated by Molecular Materials Informatics

 23 25  0  0  0  0  0  0  0  0999 V2000
    0.0000    2.7713    0.0000 O   0  0  0  0  0  0  0  0  0  0  0  0
   -0.8000    1.3856    0.0000 C   0  0  0  0  0  0  0  0  0  0  0  0
   -2.4000    1.3856    0.0000 O   0  0  0  0  0  0  0  0  0  0  0  0
   -3.2000    0.0000    0.0000 C   0  0  0  0  0  0  0  0  0  0  0  0
   -4.8000    0.0000    0.0000 C   0  0  0  0  0  0  0  0  0  0  0  0
   -5.6000   -1.3856    0.0000 C   0  0  0  0  0  0  0  0  0  0  0  0
   -4.8000   -2.7713    0.0000 C   0  0  0  0  0  0  0  0  0  0  0  0
   -3.2000   -2.7713    0.0000 C   0  0  0  0  0  0  0  0  0  0  0  0
   -2.4000   -1.3856    0.0000 C   0  0  0  0  0  0  0  0  0  0  0  0
   -0.8000   -1.3856    0.0000 C   0  0  0  0  0  0  0  0  0  0  0  0
    0.0000   -2.7713    0.0000 O   0  0  0  0  0  0  0  0  0  0  0  0
    0.0000    0.0000    0.0000 C   0  0  0  0  0  0  0  0  0  0  0  0
    1.6000    0.0000    0.0000 C   0  0  0  0  0  0  0  0  0  0  0  0
    2.4000   -1.3856    0.0000 C   0  0  0  0  0  0  0  0  0  0  0  0
    4.0000   -1.3856    0.0000 C   0  0  0  0  0  0  0  0  0  0  0  0
    4.8000    0.0000    0.0000 O   0  0  0  0  0  0  0  0  0  0  0  0
    4.8000   -2.7713    0.0000 C   0  0  0  0  0  0  0  0  0  0  0  0
    2.4000    1.3856    0.0000 C   0  0  0  0  0  0  0  0  0  0  0  0
    4.0000    1.3856    0.0000 C   0  0  0  0  0  0  0  0  0  0  0  0
    4.8000    2.7713    0.0000 C   0  0  0  0  0  0  0  0  0  0  0  0
    4.0000    4.1569    0.0000 C   0  0  0  0  0  0  0  0  0  0  0  0
    2.4000    4.1569    0.0000 C   0  0  0  0  0  0  0  0  0  0  0  0
    1.6000    2.7713    0.0000 C   0  0  0  0  0  0  0  0  0  0  0  0
  1  2  2  0  0  0  0
  2  3  1  0  0  0  0
  2 12  1  0  0  0  0
  3  4  1  0  0  0  0
  4  5  1  0  0  0  0
  4  9  2  0  0  0  0
  5  6  2  0  0  0  0
  6  7  1  0  0  0  0
  7  8  2  0  0  0  0
  8  9  1  0  0  0  0
  9 10  1  0  0  0  0
 10 11  1  0  0  0  0
 10 12  2  0  0  0  0
 12 13  1  0  0  0  0
 13 14  1  1  0  0  0
 13 18  1  0  0  0  0
 14 15  1  0  0  0  0
 15 16  2  0  0  0  0
 15 17  1  0  0  0  0
 18 19  1  0  0  0  0
 18 23  2  0  0  0  0
 19 20  2  0  0  0  0
 20 21  1  0  0  0  0
 21 22  2  0  0  0  0
 22 23  1  0  0  0  0
M  END
> <Acceptable>
true

> <IC50>
N/A

$$$$

Generated by Molecular Materials Informatics

 30 32  0  0  0  0  0  0  0  0999 V2000
    7.2000    1.3856    0.0000 S   0  0  0  0  0  0  0  0  0  0  0  0
    5.8144    2.1856    0.0000 O   0  0  0  0  0  0  0  0  0  0  0  0
    8.5856    0.5856    0.0000 O   0  0  0  0  0  0  0  0  0  0  0  0
    6.4000    0.0000    0.0000 N   0  0  0  0  0  0  0  0  0  0  0  0
    4.8000    0.0000    0.0000 C   0  0  0  0  0  0  0  0  0  0  0  0
    4.0000    1.3856    0.0000 C   0  0  0  0  0  0  0  0  0  0  0  0
    2.4000    1.3856    0.0000 C   0  0  0  0  0  0  0  0  0  0  0  0
    1.6000    0.0000    0.0000 C   0  0  0  0  0  0  0  0  0  0  0  0
    0.0000    0.0000    0.0000 S   0  0  0  0  0  0  0  0  0  0  0  0
    0.0000   -1.6000    0.0000 O   0  0  0  0  0  0  0  0  0  0  0  0
    0.0000    1.6000    0.0000 O   0  0  0  0  0  0  0  0  0  0  0  0
   -1.6000    0.0000    0.0000 N   0  0  0  0  0  0  0  0  0  0  0  0
   -2.4000    1.3856    0.0000 C   0  0  0  0  0  0  0  0  0  0  0  0
   -2.4000   -1.3856    0.0000 C   0  0  0  0  0  0  0  0  0  0  0  0
   -4.0000   -1.3856    0.0000 C   0  0  0  0  0  0  0  0  0  0  0  0
   -4.8000   -2.7713    0.0000 N   0  0  0  0  0  0  0  0  0  0  0  0
   -4.0000   -4.1569    0.0000 C   0  0  0  0  0  0  0  0  0  0  0  0
   -6.4000   -2.7713    0.0000 C   0  0  0  0  0  0  0  0  0  0  0  0
   -7.3405   -1.4769    0.0000 N   0  0  0  0  0  0  0  0  0  0  0  0
   -8.8621   -1.9713    0.0000 C   0  0  0  0  0  0  0  0  0  0  0  0
  -10.2478   -1.1713    0.0000 C   0  0  0  0  0  0  0  0  0  0  0  0
  -11.6334   -1.9713    0.0000 C   0  0  0  0  0  0  0  0  0  0  0  0
  -11.6334   -3.5713    0.0000 C   0  0  0  0  0  0  0  0  0  0  0  0
  -10.2478   -4.3713    0.0000 C   0  0  0  0  0  0  0  0  0  0  0  0
   -8.8621   -3.5713    0.0000 C   0  0  0  0  0  0  0  0  0  0  0  0
   -7.3405   -4.0657    0.0000 N   0  0  0  0  0  0  0  0  0  0  0  0
   -6.8460   -5.5874    0.0000 C   0  0  0  0  0  0  0  0  0  0  0  0
    2.4000   -1.3856    0.0000 C   0  0  0  0  0  0  0  0  0  0  0  0
    4.0000   -1.3856    0.0000 C   0  0  0  0  0  0  0  0  0  0  0  0
    8.0000    2.7713    0.0000 C   0  0  0  0  0  0  0  0  0  0  0  0
  1  2  2  0  0  0  0
  1  3  2  0  0  0  0
  1  4  1  0  0  0  0
  1 30  1  0  0  0  0
  4  5  1  0  0  0  0
  5  6  1  0  0  0  0
  5 29  2  0  0  0  0
  6  7  2  0  0  0  0
  7  8  1  0  0  0  0
  8  9  1  0  0  0  0
  8 28  2  0  0  0  0
  9 10  2  0  0  0  0
  9 11  2  0  0  0  0
  9 12  1  0  0  0  0
 12 13  1  1  0  0  0
 12 14  1  0  0  0  0
 14 15  1  0  0  0  0
 15 16  1  0  0  0  0
 16 17  1  0  0  0  0
 16 18  1  0  0  0  0
 18 19  2  0  0  0  0
 18 26  1  0  0  0  0
 19 20  1  0  0  0  0
 20 21  1  0  0  0  0
 20 25  2  0  0  0  0
 21 22  2  0  0  0  0
 22 23  1  0  0  0  0
 23 24  2  0  0  0  0
 24 25  1  0  0  0  0
 25 26  1  0  0  0  0
 26 27  1  0  0  0  0
 28 29  1  0  0  0  0
M  END
> <Acceptable>
false

> <IC50>
0.2041

$$$$

Generated by Molecular Materials Informatics

 22 25  0  0  0  0  0  0  0  0999 V2000
   -5.0026    0.4944    0.0000 S   0  0  0  0  0  0  0  0  0  0  0  0
   -5.0026    2.0944    0.0000 C   0  0  0  0  0  0  0  0  0  0  0  0
   -3.4809    2.5889    0.0000 C   0  0  0  0  0  0  0  0  0  0  0  0
   -2.5405    1.2944    0.0000 C   0  0  0  0  0  0  0  0  0  0  0  0
   -3.4809    0.0000    0.0000 C   0  0  0  0  0  0  0  0  0  0  0  0
   -0.9405    1.2944    0.0000 C   0  0  0  0  0  0  0  0  0  0  0  0
    0.0000    2.5889    0.0000 N   0  0  0  0  0  0  0  0  0  0  0  0
    1.5217    2.0944    0.0000 C   0  0  0  0  0  0  0  0  0  0  0  0
    2.9073    2.8944    0.0000 C   0  0  0  0  0  0  0  0  0  0  0  0
    4.2930    2.0944    0.0000 C   0  0  0  0  0  0  0  0  0  0  0  0
    5.6786    2.8944    0.0000 F   0  0  0  0  0  0  0  0  0  0  0  0
    4.2930    0.4944    0.0000 C   0  0  0  0  0  0  0  0  0  0  0  0
    2.9073   -0.3056    0.0000 C   0  0  0  0  0  0  0  0  0  0  0  0
    1.5217    0.4944    0.0000 C   0  0  0  0  0  0  0  0  0  0  0  0
    0.0000    0.0000    0.0000 C   0  0  0  0  0  0  0  0  0  0  0  0
   -0.4944   -1.5217    0.0000 C   0  0  0  0  0  0  0  0  0  0  0  0
   -2.0595   -1.8543    0.0000 C   0  0  0  0  0  0  0  0  0  0  0  0
   -2.5539   -3.3760    0.0000 N   0  0  0  0  0  0  0  0  0  0  0  0
   -1.4833   -4.5651    0.0000 C   0  0  0  0  0  0  0  0  0  0  0  0
    0.0818   -4.2324    0.0000 C   0  0  0  0  0  0  0  0  0  0  0  0
    0.5762   -2.7107    0.0000 C   0  0  0  0  0  0  0  0  0  0  0  0
    2.1412   -2.3781    0.0000 F   0  0  0  0  0  0  0  0  0  0  0  0
  1  2  1  0  0  0  0
  1  5  1  0  0  0  0
  2  3  2  0  0  0  0
  3  4  1  0  0  0  0
  4  5  2  0  0  0  0
  4  6  1  0  0  0  0
  6  7  1  0  0  0  0
  6 15  2  0  0  0  0
  7  8  1  0  0  0  0
  8  9  1  0  0  0  0
  8 14  2  0  0  0  0
  9 10  2  0  0  0  0
 10 11  1  0  0  0  0
 10 12  1  0  0  0  0
 12 13  2  0  0  0  0
 13 14  1  0  0  0  0
 14 15  1  0  0  0  0
 15 16  1  0  0  0  0
 16 17  1  0  0  0  0
 16 21  1  0  0  0  0
 17 18  1  0  0  0  0
 18 19  1  0  0  0  0
 19 20  1  0  0  0  0
 20 21  1  0  0  0  0
 21 22  1  0  0  0  0
M  END
> <Acceptable>
false

> <IC50>
1.5

$$$$

Generated by Molecular Materials Informatics

 22 25  0  0  0  0  0  0  0  0999 V2000
    0.0000    2.5889    0.0000 N   0  0  0  0  0  0  0  0  0  0  0  0
   -1.5217    2.0944    0.0000 C   0  0  0  0  0  0  0  0  0  0  0  0
   -2.9073    2.8944    0.0000 C   0  0  0  0  0  0  0  0  0  0  0  0
   -4.2930    2.0944    0.0000 C   0  0  0  0  0  0  0  0  0  0  0  0
   -4.2930    0.4944    0.0000 C   0  0  0  0  0  0  0  0  0  0  0  0
   -2.9073   -0.3056    0.0000 C   0  0  0  0  0  0  0  0  0  0  0  0
   -1.5217    0.4944    0.0000 C   0  0  0  0  0  0  0  0  0  0  0  0
    0.0000    0.0000    0.0000 C   0  0  0  0  0  0  0  0  0  0  0  0
    0.9405    1.2944    0.0000 C   0  0  0  0  0  0  0  0  0  0  0  0
    2.5405    1.2944    0.0000 C   0  0  0  0  0  0  0  0  0  0  0  0
    3.3405   -0.0912    0.0000 C   0  0  0  0  0  0  0  0  0  0  0  0
    4.9405   -0.0912    0.0000 C   0  0  0  0  0  0  0  0  0  0  0  0
    5.7405    1.2944    0.0000 C   0  0  0  0  0  0  0  0  0  0  0  0
    4.9405    2.6801    0.0000 C   0  0  0  0  0  0  0  0  0  0  0  0
    3.3405    2.6801    0.0000 C   0  0  0  0  0  0  0  0  0  0  0  0
    0.4944   -1.5217    0.0000 C   0  0  0  0  0  0  0  0  0  0  0  0
   -0.5762   -2.7107    0.0000 N   0  0  0  0  0  0  0  0  0  0  0  0
   -2.1412   -2.3781    0.0000 C   0  0  0  0  0  0  0  0  0  0  0  0
   -0.0818   -4.2324    0.0000 C   0  0  0  0  0  0  0  0  0  0  0  0
    1.4833   -4.5651    0.0000 C   0  0  0  0  0  0  0  0  0  0  0  0
    2.5539   -3.3760    0.0000 C   0  0  0  0  0  0  0  0  0  0  0  0
    2.0595   -1.8543    0.0000 C   0  0  0  0  0  0  0  0  0  0  0  0
  1  2  1  0  0  0  0
  1  9  1  0  0  0  0
  2  3  1  0  0  0  0
  2  7  2  0  0  0  0
  3  4  2  0  0  0  0
  4  5  1  0  0  0  0
  5  6  2  0  0  0  0
  6  7  1  0  0  0  0
  7  8  1  0  0  0  0
  8  9  2  0  0  0  0
  8 16  1  0  0  0  0
  9 10  1  0  0  0  0
 10 11  1  0  0  0  0
 10 15  2  0  0  0  0
 11 12  2  0  0  0  0
 12 13  1  0  0  0  0
 13 14  2  0  0  0  0
 14 15  1  0  0  0  0
 16 17  1  0  0  0  0
 16 22  1  0  0  0  0
 17 18  1  0  0  0  0
 17 19  1  0  0  0  0
 19 20  1  0  0  0  0
 20 21  1  0  0  0  0
 21 22  1  0  0  0  0
M  END
> <Acceptable>
false

> <IC50>
7

$$$$

Generated by Molecular Materials Informatics

 28 32  0  0  0  0  0  0  0  0999 V2000
   -2.5889    0.0000    0.0000 N   0  0  0  0  0  0  0  0  0  0  0  0
   -2.0944   -1.5217    0.0000 C   0  0  0  0  0  0  0  0  0  0  0  0
   -2.8944   -2.9073    0.0000 C   0  0  0  0  0  0  0  0  0  0  0  0
   -2.0944   -4.2930    0.0000 C   0  0  0  0  0  0  0  0  0  0  0  0
   -0.4944   -4.2930    0.0000 C   0  0  0  0  0  0  0  0  0  0  0  0
    0.3056   -2.9073    0.0000 C   0  0  0  0  0  0  0  0  0  0  0  0
   -0.4944   -1.5217    0.0000 C   0  0  0  0  0  0  0  0  0  0  0  0
    0.0000    0.0000    0.0000 C   0  0  0  0  0  0  0  0  0  0  0  0
   -1.2944    0.9405    0.0000 C   0  0  0  0  0  0  0  0  0  0  0  0
   -1.2944    2.5405    0.0000 C   0  0  0  0  0  0  0  0  0  0  0  0
    0.0912    3.3405    0.0000 C   0  0  0  0  0  0  0  0  0  0  0  0
    0.0912    4.9405    0.0000 C   0  0  0  0  0  0  0  0  0  0  0  0
   -1.2944    5.7405    0.0000 C   0  0  0  0  0  0  0  0  0  0  0  0
   -2.6801    4.9405    0.0000 C   0  0  0  0  0  0  0  0  0  0  0  0
   -2.6801    3.3405    0.0000 C   0  0  0  0  0  0  0  0  0  0  0  0
    1.5217    0.4944    0.0000 C   0  0  0  0  0  0  0  0  0  0  0  0
    2.7107   -0.5762    0.0000 C   0  0  0  0  0  0  0  0  0  0  0  0
    4.2324   -0.0818    0.0000 N   0  0  0  0  0  0  0  0  0  0  0  0
    4.5651    1.4833    0.0000 C   0  0  0  0  0  0  0  0  0  0  0  0
    3.3760    2.5539    0.0000 C   0  0  0  0  0  0  0  0  0  0  0  0
    1.8543    2.0595    0.0000 C   0  0  0  0  0  0  0  0  0  0  0  0
    5.4214   -1.1524    0.0000 C   0  0  0  0  0  0  0  0  0  0  0  0
    6.9431   -0.6579    0.0000 C   0  0  0  0  0  0  0  0  0  0  0  0
    8.1322   -1.7285    0.0000 C   0  0  0  0  0  0  0  0  0  0  0  0
    9.6539   -1.2341    0.0000 C   0  0  0  0  0  0  0  0  0  0  0  0
    9.9865    0.3309    0.0000 C   0  0  0  0  0  0  0  0  0  0  0  0
    8.7975    1.4015    0.0000 C   0  0  0  0  0  0  0  0  0  0  0  0
    7.2758    0.9071    0.0000 C   0  0  0  0  0  0  0  0  0  0  0  0
  1  2  1  0  0  0  0
  1  9  1  0  0  0  0
  2  3  1  0  0  0  0
  2  7  2  0  0  0  0
  3  4  2  0  0  0  0
  4  5  1  0  0  0  0
  5  6  2  0  0  0  0
  6  7  1  0  0  0  0
  7  8  1  0  0  0  0
  8  9  2  0  0  0  0
  8 16  1  0  0  0  0
  9 10  1  0  0  0  0
 10 11  1  0  0  0  0
 10 15  2  0  0  0  0
 11 12  2  0  0  0  0
 12 13  1  0  0  0  0
 13 14  2  0  0  0  0
 14 15  1  0  0  0  0
 16 17  1  0  0  0  0
 16 21  1  0  0  0  0
 17 18  1  0  0  0  0
 18 19  1  0  0  0  0
 18 22  1  0  0  0  0
 19 20  1  0  0  0  0
 20 21  1  0  0  0  0
 22 23  1  0  0  0  0
 23 24  1  0  0  0  0
 23 28  2  0  0  0  0
 24 25  2  0  0  0  0
 25 26  1  0  0  0  0
 26 27  2  0  0  0  0
 27 28  1  0  0  0  0
M  END
> <Acceptable>
false

> <IC50>
0.29

$$$$

Generated by Molecular Materials Informatics

 29 33  0  0  0  0  0  0  0  0999 V2000
   -2.2420   -1.2944    0.0000 N   0  0  0  0  0  0  0  0  0  0  0  0
   -1.0530   -2.3650    0.0000 C   0  0  0  0  0  0  0  0  0  0  0  0
   -1.0530   -3.9650    0.0000 C   0  0  0  0  0  0  0  0  0  0  0  0
    0.3327   -4.7650    0.0000 C   0  0  0  0  0  0  0  0  0  0  0  0
    1.7183   -3.9650    0.0000 C   0  0  0  0  0  0  0  0  0  0  0  0
    1.7183   -2.3650    0.0000 C   0  0  0  0  0  0  0  0  0  0  0  0
    0.3327   -1.5650    0.0000 C   0  0  0  0  0  0  0  0  0  0  0  0
    0.0000    0.0000    0.0000 C   0  0  0  0  0  0  0  0  0  0  0  0
   -1.5912    0.1672    0.0000 C   0  0  0  0  0  0  0  0  0  0  0  0
   -2.3912    1.5529    0.0000 C   0  0  0  0  0  0  0  0  0  0  0  0
   -1.5912    2.9385    0.0000 C   0  0  0  0  0  0  0  0  0  0  0  0
   -2.3912    4.3242    0.0000 C   0  0  0  0  0  0  0  0  0  0  0  0
   -3.9912    4.3242    0.0000 C   0  0  0  0  0  0  0  0  0  0  0  0
   -4.7912    2.9385    0.0000 C   0  0  0  0  0  0  0  0  0  0  0  0
   -3.9912    1.5529    0.0000 C   0  0  0  0  0  0  0  0  0  0  0  0
    1.0706    1.1890    0.0000 C   0  0  0  0  0  0  0  0  0  0  0  0
    2.6356    0.8564    0.0000 C   0  0  0  0  0  0  0  0  0  0  0  0
    3.7063    2.0454    0.0000 N   0  0  0  0  0  0  0  0  0  0  0  0
    3.2118    3.5671    0.0000 C   0  0  0  0  0  0  0  0  0  0  0  0
    1.6468    3.8998    0.0000 C   0  0  0  0  0  0  0  0  0  0  0  0
    0.5762    2.7107    0.0000 C   0  0  0  0  0  0  0  0  0  0  0  0
    5.2713    1.7128    0.0000 C   0  0  0  0  0  0  0  0  0  0  0  0
    6.3419    2.9018    0.0000 C   0  0  0  0  0  0  0  0  0  0  0  0
    7.9069    2.5691    0.0000 C   0  0  0  0  0  0  0  0  0  0  0  0
    8.4014    1.0474    0.0000 C   0  0  0  0  0  0  0  0  0  0  0  0
    9.9664    0.7148    0.0000 C   0  0  0  0  0  0  0  0  0  0  0  0
   11.0370    1.9038    0.0000 C   0  0  0  0  0  0  0  0  0  0  0  0
   10.5426    3.4255    0.0000 C   0  0  0  0  0  0  0  0  0  0  0  0
    8.9775    3.7582    0.0000 C   0  0  0  0  0  0  0  0  0  0  0  0
  1  2  1  0  0  0  0
  1  9  1  0  0  0  0
  2  3  1  0  0  0  0
  2  7  2  0  0  0  0
  3  4  2  0  0  0  0
  4  5  1  0  0  0  0
  5  6  2  0  0  0  0
  6  7  1  0  0  0  0
  7  8  1  0  0  0  0
  8  9  2  0  0  0  0
  8 16  1  0  0  0  0
  9 10  1  0  0  0  0
 10 11  1  0  0  0  0
 10 15  2  0  0  0  0
 11 12  2  0  0  0  0
 12 13  1  0  0  0  0
 13 14  2  0  0  0  0
 14 15  1  0  0  0  0
 16 17  1  0  0  0  0
 16 21  1  0  0  0  0
 17 18  1  0  0  0  0
 18 19  1  0  0  0  0
 18 22  1  0  0  0  0
 19 20  1  0  0  0  0
 20 21  1  0  0  0  0
 22 23  1  0  0  0  0
 23 24  1  0  0  0  0
 24 25  1  0  0  0  0
 24 29  2  0  0  0  0
 25 26  2  0  0  0  0
 26 27  1  0  0  0  0
 27 28  2  0  0  0  0
 28 29  1  0  0  0  0
M  END
> <Acceptable>
false

> <IC50>
0.53

$$$$

Generated by Molecular Materials Informatics

 22 25  0  0  0  0  0  0  0  0999 V2000
    0.0000   -2.5889    0.0000 N   0  0  0  0  0  0  0  0  0  0  0  0
   -1.5217   -2.0944    0.0000 C   0  0  0  0  0  0  0  0  0  0  0  0
   -2.9073   -2.8944    0.0000 C   0  0  0  0  0  0  0  0  0  0  0  0
   -4.2930   -2.0944    0.0000 C   0  0  0  0  0  0  0  0  0  0  0  0
   -4.2930   -0.4944    0.0000 C   0  0  0  0  0  0  0  0  0  0  0  0
   -2.9073    0.3056    0.0000 C   0  0  0  0  0  0  0  0  0  0  0  0
   -1.5217   -0.4944    0.0000 C   0  0  0  0  0  0  0  0  0  0  0  0
    0.0000    0.0000    0.0000 C   0  0  0  0  0  0  0  0  0  0  0  0
    0.9405   -1.2944    0.0000 C   0  0  0  0  0  0  0  0  0  0  0  0
    2.5405   -1.2944    0.0000 C   0  0  0  0  0  0  0  0  0  0  0  0
    3.3405    0.0912    0.0000 C   0  0  0  0  0  0  0  0  0  0  0  0
    4.9405    0.0912    0.0000 C   0  0  0  0  0  0  0  0  0  0  0  0
    5.7405   -1.2944    0.0000 C   0  0  0  0  0  0  0  0  0  0  0  0
    4.9405   -2.6801    0.0000 C   0  0  0  0  0  0  0  0  0  0  0  0
    3.3405   -2.6801    0.0000 C   0  0  0  0  0  0  0  0  0  0  0  0
    0.4944    1.5217    0.0000 C   0  0  0  0  0  0  0  0  0  0  0  0
   -0.5762    2.7107    0.0000 C   0  0  0  0  0  0  0  0  0  0  0  0
   -0.0818    4.2324    0.0000 N   0  0  0  0  0  0  0  0  0  0  0  0
   -1.1524    5.4214    0.0000 C   0  0  0  0  0  0  0  0  0  0  0  0
    1.4833    4.5651    0.0000 C   0  0  0  0  0  0  0  0  0  0  0  0
    2.5539    3.3760    0.0000 C   0  0  0  0  0  0  0  0  0  0  0  0
    2.0595    1.8543    0.0000 C   0  0  0  0  0  0  0  0  0  0  0  0
  1  2  1  0  0  0  0
  1  9  1  0  0  0  0
  2  3  1  0  0  0  0
  2  7  2  0  0  0  0
  3  4  2  0  0  0  0
  4  5  1  0  0  0  0
  5  6  2  0  0  0  0
  6  7  1  0  0  0  0
  7  8  1  0  0  0  0
  8  9  2  0  0  0  0
  8 16  1  0  0  0  0
  9 10  1  0  0  0  0
 10 11  1  0  0  0  0
 10 15  2  0  0  0  0
 11 12  2  0  0  0  0
 12 13  1  0  0  0  0
 13 14  2  0  0  0  0
 14 15  1  0  0  0  0
 16 17  1  0  0  0  0
 16 22  1  0  0  0  0
 17 18  1  0  0  0  0
 18 19  1  0  0  0  0
 18 20  1  0  0  0  0
 20 21  1  0  0  0  0
 21 22  1  0  0  0  0
M  END
> <Acceptable>
false

> <IC50>
9.6

$$$$

Generated by Molecular Materials Informatics

 27 31  0  0  0  0  0  0  0  0999 V2000
   -2.2420    1.2944    0.0000 N   0  0  0  0  0  0  0  0  0  0  0  0
   -2.5747   -0.2706    0.0000 C   0  0  0  0  0  0  0  0  0  0  0  0
   -3.9603   -1.0706    0.0000 C   0  0  0  0  0  0  0  0  0  0  0  0
   -3.9603   -2.6706    0.0000 C   0  0  0  0  0  0  0  0  0  0  0  0
   -2.5747   -3.4706    0.0000 C   0  0  0  0  0  0  0  0  0  0  0  0
   -1.1890   -2.6706    0.0000 C   0  0  0  0  0  0  0  0  0  0  0  0
   -1.1890   -1.0706    0.0000 C   0  0  0  0  0  0  0  0  0  0  0  0
    0.0000    0.0000    0.0000 C   0  0  0  0  0  0  0  0  0  0  0  0
   -0.6508    1.4617    0.0000 C   0  0  0  0  0  0  0  0  0  0  0  0
    0.1492    2.8473    0.0000 C   0  0  0  0  0  0  0  0  0  0  0  0
    1.7492    2.8473    0.0000 C   0  0  0  0  0  0  0  0  0  0  0  0
    2.5492    4.2330    0.0000 C   0  0  0  0  0  0  0  0  0  0  0  0
    1.7492    5.6186    0.0000 C   0  0  0  0  0  0  0  0  0  0  0  0
    0.1492    5.6186    0.0000 C   0  0  0  0  0  0  0  0  0  0  0  0
   -0.6508    4.2330    0.0000 C   0  0  0  0  0  0  0  0  0  0  0  0
    1.5650   -0.3327    0.0000 C   0  0  0  0  0  0  0  0  0  0  0  0
    2.0595   -1.8543    0.0000 C   0  0  0  0  0  0  0  0  0  0  0  0
    3.6245   -2.1870    0.0000 C   0  0  0  0  0  0  0  0  0  0  0  0
    4.6951   -0.9980    0.0000 N   0  0  0  0  0  0  0  0  0  0  0  0
    4.2007    0.5237    0.0000 C   0  0  0  0  0  0  0  0  0  0  0  0
    2.6356    0.8564    0.0000 C   0  0  0  0  0  0  0  0  0  0  0  0
    6.2601   -1.3306    0.0000 C   0  0  0  0  0  0  0  0  0  0  0  0
    6.7546   -2.8523    0.0000 C   0  0  0  0  0  0  0  0  0  0  0  0
    8.3196   -3.1850    0.0000 C   0  0  0  0  0  0  0  0  0  0  0  0
    9.3902   -1.9959    0.0000 C   0  0  0  0  0  0  0  0  0  0  0  0
    8.8958   -0.4743    0.0000 C   0  0  0  0  0  0  0  0  0  0  0  0
    7.3308   -0.1416    0.0000 C   0  0  0  0  0  0  0  0  0  0  0  0
  1  2  1  0  0  0  0
  1  9  1  0  0  0  0
  2  3  1  0  0  0  0
  2  7  2  0  0  0  0
  3  4  2  0  0  0  0
  4  5  1  0  0  0  0
  5  6  2  0  0  0  0
  6  7  1  0  0  0  0
  7  8  1  0  0  0  0
  8  9  2  0  0  0  0
  8 16  1  0  0  0  0
  9 10  1  0  0  0  0
 10 11  1  0  0  0  0
 10 15  2  0  0  0  0
 11 12  2  0  0  0  0
 12 13  1  0  0  0  0
 13 14  2  0  0  0  0
 14 15  1  0  0  0  0
 16 17  1  0  0  0  0
 16 21  1  0  0  0  0
 17 18  1  0  0  0  0
 18 19  1  0  0  0  0
 19 20  1  0  0  0  0
 19 22  1  0  0  0  0
 20 21  1  0  0  0  0
 22 23  1  0  0  0  0
 22 27  2  0  0  0  0
 23 24  2  0  0  0  0
 24 25  1  0  0  0  0
 25 26  2  0  0  0  0
 26 27  1  0  0  0  0
M  END
> <Acceptable>
false

> <IC50>
0.08

$$$$

Generated by Molecular Materials Informatics

 29 34  0  0  0  0  0  0  0  0999 V2000
   -2.5889    0.0000    0.0000 N   0  0  0  0  0  0  0  0  0  0  0  0
   -2.0944   -1.5217    0.0000 C   0  0  0  0  0  0  0  0  0  0  0  0
   -2.8944   -2.9073    0.0000 C   0  0  0  0  0  0  0  0  0  0  0  0
   -2.0944   -4.2930    0.0000 C   0  0  0  0  0  0  0  0  0  0  0  0
   -0.4944   -4.2930    0.0000 C   0  0  0  0  0  0  0  0  0  0  0  0
    0.3056   -2.9073    0.0000 C   0  0  0  0  0  0  0  0  0  0  0  0
   -0.4944   -1.5217    0.0000 C   0  0  0  0  0  0  0  0  0  0  0  0
    0.0000    0.0000    0.0000 C   0  0  0  0  0  0  0  0  0  0  0  0
   -1.2944    0.9405    0.0000 C   0  0  0  0  0  0  0  0  0  0  0  0
   -1.2944    2.5405    0.0000 C   0  0  0  0  0  0  0  0  0  0  0  0
    0.0912    3.3405    0.0000 C   0  0  0  0  0  0  0  0  0  0  0  0
    0.0912    4.9405    0.0000 C   0  0  0  0  0  0  0  0  0  0  0  0
   -1.2944    5.7405    0.0000 C   0  0  0  0  0  0  0  0  0  0  0  0
   -2.6801    4.9405    0.0000 C   0  0  0  0  0  0  0  0  0  0  0  0
   -2.6801    3.3405    0.0000 C   0  0  0  0  0  0  0  0  0  0  0  0
    1.5217    0.4944    0.0000 C   0  0  0  0  0  0  0  0  0  0  0  0
    2.7826    1.4919    0.0000 C   0  0  0  0  0  0  0  0  0  0  0  0
    4.0999    0.2630    0.0000 C   0  0  0  0  0  0  0  0  0  0  0  0
    5.4786    0.1681    0.0000 N   0  0  0  0  0  0  0  0  0  0  0  0
    7.0076    0.6394    0.0000 C   0  0  0  0  0  0  0  0  0  0  0  0
    8.1802   -0.4492    0.0000 C   0  0  0  0  0  0  0  0  0  0  0  0
    9.7093    0.0221    0.0000 C   0  0  0  0  0  0  0  0  0  0  0  0
   10.0657    1.5819    0.0000 C   0  0  0  0  0  0  0  0  0  0  0  0
    8.8930    2.6704    0.0000 C   0  0  0  0  0  0  0  0  0  0  0  0
    7.3640    2.1992    0.0000 C   0  0  0  0  0  0  0  0  0  0  0  0
    4.2211   -0.8212    0.0000 C   0  0  0  0  0  0  0  0  0  0  0  0
    2.8219    0.4411    0.0000 C   0  0  0  0  0  0  0  0  0  0  0  0
    4.0444   -2.5223    0.0000 C   0  0  0  0  0  0  0  0  0  0  0  0
    3.6408   -1.1737    0.0000 C   0  0  0  0  0  0  0  0  0  0  0  0
  1  2  1  0  0  0  0
  1  9  1  0  0  0  0
  2  3  1  0  0  0  0
  2  7  2  0  0  0  0
  3  4  2  0  0  0  0
  4  5  1  0  0  0  0
  5  6  2  0  0  0  0
  6  7  1  0  0  0  0
  7  8  1  0  0  0  0
  8  9  2  0  0  0  0
  8 16  1  0  0  0  0
  9 10  1  0  0  0  0
 10 11  1  0  0  0  0
 10 15  2  0  0  0  0
 11 12  2  0  0  0  0
 12 13  1  0  0  0  0
 13 14  2  0  0  0  0
 14 15  1  0  0  0  0
 16 17  1  0  0  0  0
 16 27  1  0  0  0  0
 17 18  1  0  0  0  0
 18 19  1  0  0  0  0
 18 29  1  0  0  0  0
 19 20  1  0  0  0  0
 19 26  1  0  0  0  0
 20 21  1  0  0  0  0
 20 25  2  0  0  0  0
 21 22  2  0  0  0  0
 22 23  1  0  0  0  0
 23 24  2  0  0  0  0
 24 25  1  0  0  0  0
 26 27  1  0  0  0  0
 26 28  1  0  0  0  0
 28 29  1  0  0  0  0
M  END
> <Acceptable>
false

> <IC50>
0.018

$$$$

Generated by Molecular Materials Informatics

 32 35  0  0  0  0  0  0  0  0999 V2000
    0.0000    0.0000    0.0000 S   0  0  0  0  0  0  0  0  0  0  0  0
   -0.1672   -1.5912    0.0000 O   0  0  0  0  0  0  0  0  0  0  0  0
    0.1672    1.5912    0.0000 O   0  0  0  0  0  0  0  0  0  0  0  0
   -1.5912    0.1672    0.0000 N   0  0  0  0  0  0  0  0  0  0  0  0
   -2.5317   -1.1272    0.0000 C   0  0  0  0  0  0  0  0  0  0  0  0
   -4.1229   -0.9599    0.0000 C   0  0  0  0  0  0  0  0  0  0  0  0
   -5.0634   -2.2544    0.0000 C   0  0  0  0  0  0  0  0  0  0  0  0
   -6.6546   -2.0871    0.0000 C   0  0  0  0  0  0  0  0  0  0  0  0
   -7.3054   -0.6254    0.0000 C   0  0  0  0  0  0  0  0  0  0  0  0
   -6.3649    0.6690    0.0000 C   0  0  0  0  0  0  0  0  0  0  0  0
   -4.7737    0.5017    0.0000 C   0  0  0  0  0  0  0  0  0  0  0  0
   -8.8966   -0.4582    0.0000 C   0  0  0  0  0  0  0  0  0  0  0  0
   -9.9672   -1.6472    0.0000 N   0  0  0  0  0  0  0  0  0  0  0  0
  -11.4289   -0.9965    0.0000 C   0  0  0  0  0  0  0  0  0  0  0  0
  -11.2617    0.5948    0.0000 C   0  0  0  0  0  0  0  0  0  0  0  0
   -9.6966    0.9274    0.0000 N   0  0  0  0  0  0  0  0  0  0  0  0
  -12.8146   -1.7965    0.0000 C   0  0  0  0  0  0  0  0  0  0  0  0
  -12.8146   -3.3965    0.0000 C   0  0  0  0  0  0  0  0  0  0  0  0
  -14.2002   -4.1965    0.0000 C   0  0  0  0  0  0  0  0  0  0  0  0
  -15.5858   -3.3965    0.0000 C   0  0  0  0  0  0  0  0  0  0  0  0
  -15.5858   -1.7965    0.0000 C   0  0  0  0  0  0  0  0  0  0  0  0
  -14.2002   -0.9965    0.0000 C   0  0  0  0  0  0  0  0  0  0  0  0
  -16.9715   -0.9965    0.0000 C   0  0  0  0  0  0  0  0  0  0  0  0
  -16.9715    0.6035    0.0000 F   0  0  0  0  0  0  0  0  0  0  0  0
  -18.3571   -1.7965    0.0000 F   0  0  0  0  0  0  0  0  0  0  0  0
  -18.3571   -0.1965    0.0000 F   0  0  0  0  0  0  0  0  0  0  0  0
    1.5912   -0.1672    0.0000 C   0  0  0  0  0  0  0  0  0  0  0  0
    2.5317    1.1272    0.0000 C   0  0  0  0  0  0  0  0  0  0  0  0
    4.1229    0.9599    0.0000 C   0  0  0  0  0  0  0  0  0  0  0  0
    4.7737   -0.5017    0.0000 C   0  0  0  0  0  0  0  0  0  0  0  0
    3.8333   -1.7962    0.0000 C   0  0  0  0  0  0  0  0  0  0  0  0
    2.2420   -1.6289    0.0000 C   0  0  0  0  0  0  0  0  0  0  0  0
  1  2  2  0  0  0  0
  1  3  2  0  0  0  0
  1  4  1  0  0  0  0
  1 27  1  0  0  0  0
  4  5  1  0  0  0  0
  5  6  1  0  0  0  0
  6  7  1  0  0  0  0
  6 11  1  0  0  0  0
  7  8  1  0  0  0  0
  8  9  1  0  0  0  0
  9 10  1  0  0  0  0
  9 12  1  0  0  0  0
 10 11  1  0  0  0  0
 12 13  2  0  0  0  0
 12 16  1  0  0  0  0
 13 14  1  0  0  0  0
 14 15  2  0  0  0  0
 14 17  1  0  0  0  0
 15 16  1  0  0  0  0
 17 18  1  0  0  0  0
 17 22  2  0  0  0  0
 18 19  2  0  0  0  0
 19 20  1  0  0  0  0
 20 21  2  0  0  0  0
 21 22  1  0  0  0  0
 21 23  1  0  0  0  0
 23 24  1  0  0  0  0
 23 25  1  0  0  0  0
 23 26  1  0  0  0  0
 27 28  1  0  0  0  0
 27 32  2  0  0  0  0
 28 29  2  0  0  0  0
 29 30  1  0  0  0  0
 30 31  2  0  0  0  0
 31 32  1  0  0  0  0
M  END
> <Acceptable>
false

> <IC50>
<1

$$$$

Generated by Molecular Materials Informatics

 33 36  0  0  0  0  0  0  0  0999 V2000
    0.0000    0.0000    0.0000 S   0  0  0  0  0  0  0  0  0  0  0  0
   -0.1672   -1.5912    0.0000 O   0  0  0  0  0  0  0  0  0  0  0  0
    0.1672    1.5912    0.0000 O   0  0  0  0  0  0  0  0  0  0  0  0
   -1.5912    0.1672    0.0000 N   0  0  0  0  0  0  0  0  0  0  0  0
   -2.5317   -1.1272    0.0000 C   0  0  0  0  0  0  0  0  0  0  0  0
   -1.8809   -2.5889    0.0000 O   0  0  0  0  0  0  0  0  0  0  0  0
   -4.1229   -0.9599    0.0000 C   0  0  0  0  0  0  0  0  0  0  0  0
   -5.0634   -2.2544    0.0000 C   0  0  0  0  0  0  0  0  0  0  0  0
   -6.6546   -2.0871    0.0000 C   0  0  0  0  0  0  0  0  0  0  0  0
   -7.3054   -0.6254    0.0000 C   0  0  0  0  0  0  0  0  0  0  0  0
   -6.3649    0.6690    0.0000 C   0  0  0  0  0  0  0  0  0  0  0  0
   -4.7737    0.5017    0.0000 C   0  0  0  0  0  0  0  0  0  0  0  0
   -8.8966   -0.4582    0.0000 C   0  0  0  0  0  0  0  0  0  0  0  0
   -9.9672   -1.6472    0.0000 N   0  0  0  0  0  0  0  0  0  0  0  0
  -11.4289   -0.9965    0.0000 C   0  0  0  0  0  0  0  0  0  0  0  0
  -11.2617    0.5948    0.0000 C   0  0  0  0  0  0  0  0  0  0  0  0
   -9.6966    0.9274    0.0000 N   0  0  0  0  0  0  0  0  0  0  0  0
  -12.8146   -1.7965    0.0000 C   0  0  0  0  0  0  0  0  0  0  0  0
  -12.8146   -3.3965    0.0000 C   0  0  0  0  0  0  0  0  0  0  0  0
  -14.2002   -4.1965    0.0000 C   0  0  0  0  0  0  0  0  0  0  0  0
  -15.5858   -3.3965    0.0000 C   0  0  0  0  0  0  0  0  0  0  0  0
  -15.5858   -1.7965    0.0000 C   0  0  0  0  0  0  0  0  0  0  0  0
  -14.2002   -0.9965    0.0000 C   0  0  0  0  0  0  0  0  0  0  0  0
  -16.9715   -0.9965    0.0000 C   0  0  0  0  0  0  0  0  0  0  0  0
  -16.9715    0.6035    0.0000 F   0  0  0  0  0  0  0  0  0  0  0  0
  -18.3571   -1.7965    0.0000 F   0  0  0  0  0  0  0  0  0  0  0  0
  -18.3571   -0.1965    0.0000 F   0  0  0  0  0  0  0  0  0  0  0  0
    1.5912   -0.1672    0.0000 C   0  0  0  0  0  0  0  0  0  0  0  0
    2.5317    1.1272    0.0000 C   0  0  0  0  0  0  0  0  0  0  0  0
    4.1229    0.9599    0.0000 C   0  0  0  0  0  0  0  0  0  0  0  0
    4.7737   -0.5017    0.0000 C   0  0  0  0  0  0  0  0  0  0  0  0
    3.8333   -1.7962    0.0000 C   0  0  0  0  0  0  0  0  0  0  0  0
    2.2420   -1.6289    0.0000 C   0  0  0  0  0  0  0  0  0  0  0  0
  1  2  2  0  0  0  0
  1  3  2  0  0  0  0
  1  4  1  0  0  0  0
  1 28  1  0  0  0  0
  4  5  1  0  0  0  0
  5  6  2  0  0  0  0
  5  7  1  0  0  0  0
  7  8  1  0  0  0  0
  7 12  1  0  0  0  0
  8  9  1  0  0  0  0
  9 10  1  0  0  0  0
 10 11  1  0  0  0  0
 10 13  1  0  0  0  0
 11 12  1  0  0  0  0
 13 14  2  0  0  0  0
 13 17  1  0  0  0  0
 14 15  1  0  0  0  0
 15 16  2  0  0  0  0
 15 18  1  0  0  0  0
 16 17  1  0  0  0  0
 18 19  1  0  0  0  0
 18 23  2  0  0  0  0
 19 20  2  0  0  0  0
 20 21  1  0  0  0  0
 21 22  2  0  0  0  0
 22 23  1  0  0  0  0
 22 24  1  0  0  0  0
 24 25  1  0  0  0  0
 24 26  1  0  0  0  0
 24 27  1  0  0  0  0
 28 29  1  0  0  0  0
 28 33  2  0  0  0  0
 29 30  2  0  0  0  0
 30 31  1  0  0  0  0
 31 32  2  0  0  0  0
 32 33  1  0  0  0  0
M  END
> <Acceptable>
true

> <IC50>
N/A

$$$$

Generated by Molecular Materials Informatics

 33 36  0  0  0  0  0  0  0  0999 V2000
    0.0000    0.0000    0.0000 S   0  0  0  0  0  0  0  0  0  0  0  0
   -0.1672   -1.5912    0.0000 O   0  0  0  0  0  0  0  0  0  0  0  0
    0.1672    1.5912    0.0000 O   0  0  0  0  0  0  0  0  0  0  0  0
   -1.5912    0.1672    0.0000 N   0  0  0  0  0  0  0  0  0  0  0  0
   -2.2420    1.6289    0.0000 C   0  0  0  0  0  0  0  0  0  0  0  0
   -2.5317   -1.1272    0.0000 C   0  0  0  0  0  0  0  0  0  0  0  0
   -4.1229   -0.9599    0.0000 C   0  0  0  0  0  0  0  0  0  0  0  0
   -5.0634   -2.2544    0.0000 C   0  0  0  0  0  0  0  0  0  0  0  0
   -6.6546   -2.0871    0.0000 C   0  0  0  0  0  0  0  0  0  0  0  0
   -7.3054   -0.6254    0.0000 C   0  0  0  0  0  0  0  0  0  0  0  0
   -6.3649    0.6690    0.0000 C   0  0  0  0  0  0  0  0  0  0  0  0
   -4.7737    0.5017    0.0000 C   0  0  0  0  0  0  0  0  0  0  0  0
   -8.8966   -0.4582    0.0000 C   0  0  0  0  0  0  0  0  0  0  0  0
   -9.9672   -1.6472    0.0000 N   0  0  0  0  0  0  0  0  0  0  0  0
  -11.4289   -0.9965    0.0000 C   0  0  0  0  0  0  0  0  0  0  0  0
  -11.2617    0.5948    0.0000 C   0  0  0  0  0  0  0  0  0  0  0  0
   -9.6966    0.9274    0.0000 N   0  0  0  0  0  0  0  0  0  0  0  0
  -12.8146   -1.7965    0.0000 C   0  0  0  0  0  0  0  0  0  0  0  0
  -12.8146   -3.3965    0.0000 C   0  0  0  0  0  0  0  0  0  0  0  0
  -14.2002   -4.1965    0.0000 C   0  0  0  0  0  0  0  0  0  0  0  0
  -15.5858   -3.3965    0.0000 C   0  0  0  0  0  0  0  0  0  0  0  0
  -15.5858   -1.7965    0.0000 C   0  0  0  0  0  0  0  0  0  0  0  0
  -14.2002   -0.9965    0.0000 C   0  0  0  0  0  0  0  0  0  0  0  0
  -16.9715   -0.9965    0.0000 C   0  0  0  0  0  0  0  0  0  0  0  0
  -16.9715    0.6035    0.0000 F   0  0  0  0  0  0  0  0  0  0  0  0
  -18.3571   -1.7965    0.0000 F   0  0  0  0  0  0  0  0  0  0  0  0
  -18.3571   -0.1965    0.0000 F   0  0  0  0  0  0  0  0  0  0  0  0
    1.5912   -0.1672    0.0000 C   0  0  0  0  0  0  0  0  0  0  0  0
    2.5317    1.1272    0.0000 C   0  0  0  0  0  0  0  0  0  0  0  0
    4.1229    0.9599    0.0000 C   0  0  0  0  0  0  0  0  0  0  0  0
    4.7737   -0.5017    0.0000 C   0  0  0  0  0  0  0  0  0  0  0  0
    3.8333   -1.7962    0.0000 C   0  0  0  0  0  0  0  0  0  0  0  0
    2.2420   -1.6289    0.0000 C   0  0  0  0  0  0  0  0  0  0  0  0
  1  2  2  0  0  0  0
  1  3  2  0  0  0  0
  1  4  1  0  0  0  0
  1 28  1  0  0  0  0
  4  5  1  0  0  0  0
  4  6  1  0  0  0  0
  6  7  1  0  0  0  0
  7  8  1  0  0  0  0
  7 12  1  0  0  0  0
  8  9  1  0  0  0  0
  9 10  1  0  0  0  0
 10 11  1  0  0  0  0
 10 13  1  0  0  0  0
 11 12  1  0  0  0  0
 13 14  2  0  0  0  0
 13 17  1  0  0  0  0
 14 15  1  0  0  0  0
 15 16  2  0  0  0  0
 15 18  1  0  0  0  0
 16 17  1  0  0  0  0
 18 19  1  0  0  0  0
 18 23  2  0  0  0  0
 19 20  2  0  0  0  0
 20 21  1  0  0  0  0
 21 22  2  0  0  0  0
 22 23  1  0  0  0  0
 22 24  1  0  0  0  0
 24 25  1  0  0  0  0
 24 26  1  0  0  0  0
 24 27  1  0  0  0  0
 28 29  1  0  0  0  0
 28 33  2  0  0  0  0
 29 30  2  0  0  0  0
 30 31  1  0  0  0  0
 31 32  2  0  0  0  0
 32 33  1  0  0  0  0
M  END
> <Acceptable>
false

> <IC50>
<1

$$$$

Generated by Molecular Materials Informatics

 31 34  0  0  0  0  0  0  0  0999 V2000
   -4.7737    0.5017    0.0000 S   0  0  0  0  0  0  0  0  0  0  0  0
   -4.1229   -0.9599    0.0000 C   0  0  0  0  0  0  0  0  0  0  0  0
   -5.0634   -2.2544    0.0000 N   0  0  0  0  0  0  0  0  0  0  0  0
   -4.4126   -3.7160    0.0000 C   0  0  0  0  0  0  0  0  0  0  0  0
   -2.8214   -3.8833    0.0000 C   0  0  0  0  0  0  0  0  0  0  0  0
   -1.8809   -2.5889    0.0000 C   0  0  0  0  0  0  0  0  0  0  0  0
   -2.5317   -1.1272    0.0000 C   0  0  0  0  0  0  0  0  0  0  0  0
   -1.5912    0.1672    0.0000 C   0  0  0  0  0  0  0  0  0  0  0  0
   -2.2420    1.6289    0.0000 O   0  0  0  0  0  0  0  0  0  0  0  0
    0.0000    0.0000    0.0000 N   0  0  0  0  0  0  0  0  0  0  0  0
    0.8000   -1.3856    0.0000 C   0  0  0  0  0  0  0  0  0  0  0  0
    2.3650   -1.0530    0.0000 C   0  0  0  0  0  0  0  0  0  0  0  0
    2.5323    0.5383    0.0000 C   0  0  0  0  0  0  0  0  0  0  0  0
    3.9179    1.3383    0.0000 N   0  0  0  0  0  0  0  0  0  0  0  0
    5.3036    0.5383    0.0000 C   0  0  0  0  0  0  0  0  0  0  0  0
    6.6892    1.3383    0.0000 C   0  0  0  0  0  0  0  0  0  0  0  0
    8.1509    0.6875    0.0000 N   0  0  0  0  0  0  0  0  0  0  0  0
    9.2215    1.8765    0.0000 C   0  0  0  0  0  0  0  0  0  0  0  0
    8.4215    3.2621    0.0000 N   0  0  0  0  0  0  0  0  0  0  0  0
    6.8565    2.9295    0.0000 C   0  0  0  0  0  0  0  0  0  0  0  0
    8.4835   -0.8776    0.0000 C   0  0  0  0  0  0  0  0  0  0  0  0
   10.0052   -1.3720    0.0000 C   0  0  0  0  0  0  0  0  0  0  0  0
   10.3379   -2.9370    0.0000 C   0  0  0  0  0  0  0  0  0  0  0  0
   11.8596   -3.4315    0.0000 C   0  0  0  0  0  0  0  0  0  0  0  0
   13.0486   -2.3608    0.0000 C   0  0  0  0  0  0  0  0  0  0  0  0
   14.5703   -2.8553    0.0000 C   0  0  0  0  0  0  0  0  0  0  0  0
   16.0920   -3.3497    0.0000 N   0  0  0  0  0  0  0  0  0  0  0  0
   12.7159   -0.7958    0.0000 C   0  0  0  0  0  0  0  0  0  0  0  0
   11.1943   -0.3014    0.0000 C   0  0  0  0  0  0  0  0  0  0  0  0
    1.0706    1.1890    0.0000 C   0  0  0  0  0  0  0  0  0  0  0  0
    0.7380    2.7541    0.0000 O   0  0  0  0  0  0  0  0  0  0  0  0
  1  2  1  0  0  0  0
  2  3  1  0  0  0  0
  2  7  2  0  0  0  0
  3  4  2  0  0  0  0
  4  5  1  0  0  0  0
  5  6  2  0  0  0  0
  6  7  1  0  0  0  0
  7  8  1  0  0  0  0
  8  9  2  0  0  0  0
  8 10  1  0  0  0  0
 10 11  1  0  0  0  0
 10 30  1  0  0  0  0
 11 12  1  0  0  0  0
 12 13  1  0  0  0  0
 13 14  1  0  0  0  0
 13 30  1  0  0  0  0
 14 15  1  0  0  0  0
 15 16  1  0  0  0  0
 16 17  1  0  0  0  0
 16 20  2  0  0  0  0
 17 18  1  0  0  0  0
 17 21  1  0  0  0  0
 18 19  2  0  0  0  0
 19 20  1  0  0  0  0
 21 22  1  0  0  0  0
 22 23  1  0  0  0  0
 22 29  2  0  0  0  0
 23 24  2  0  0  0  0
 24 25  1  0  0  0  0
 25 26  1  0  0  0  0
 25 28  2  0  0  0  0
 26 27  3  0  0  0  0
 28 29  1  0  0  0  0
 30 31  2  0  0  0  0
M  END
> <Acceptable>
false

> <IC50>
11

$$$$

Generated by Molecular Materials Informatics

 32 34  0  0  0  0  0  0  0  0999 V2000
   -2.8473    0.1492    0.0000 S   0  0  0  0  0  0  0  0  0  0  0  0
   -1.3856    0.8000    0.0000 C   0  0  0  0  0  0  0  0  0  0  0  0
   -1.5529    2.3912    0.0000 C   0  0  0  0  0  0  0  0  0  0  0  0
   -3.1179    2.7239    0.0000 N   0  0  0  0  0  0  0  0  0  0  0  0
   -3.9179    1.3383    0.0000 C   0  0  0  0  0  0  0  0  0  0  0  0
   -5.5092    1.1710    0.0000 C   0  0  0  0  0  0  0  0  0  0  0  0
   -6.1599   -0.2907    0.0000 O   0  0  0  0  0  0  0  0  0  0  0  0
   -6.4496    2.4654    0.0000 C   0  0  0  0  0  0  0  0  0  0  0  0
   -7.1004    1.0038    0.0000 C   0  0  0  0  0  0  0  0  0  0  0  0
    0.0000    0.0000    0.0000 C   0  0  0  0  0  0  0  0  0  0  0  0
    1.3856    0.8000    0.0000 C   0  0  0  0  0  0  0  0  0  0  0  0
    2.7713    0.0000    0.0000 C   0  0  0  0  0  0  0  0  0  0  0  0
    4.1569    0.8000    0.0000 C   0  0  0  0  0  0  0  0  0  0  0  0
    4.1569    2.4000    0.0000 N   0  3  0  0  0  0  0  0  0  0  0  0
    5.5426    3.2000    0.0000 O   0  5  0  0  0  0  0  0  0  0  0  0
    2.7713    3.2000    0.0000 C   0  0  0  0  0  0  0  0  0  0  0  0
    1.3856    2.4000    0.0000 C   0  0  0  0  0  0  0  0  0  0  0  0
    0.0000   -1.6000    0.0000 C   0  0  0  0  0  0  0  0  0  0  0  0
   -1.3856   -2.4000    0.0000 C   0  0  0  0  0  0  0  0  0  0  0  0
   -1.3856   -4.0000    0.0000 C   0  0  0  0  0  0  0  0  0  0  0  0
    0.0000   -4.8000    0.0000 C   0  0  0  0  0  0  0  0  0  0  0  0
    0.0000   -6.4000    0.0000 O   0  0  0  0  0  0  0  0  0  0  0  0
   -1.3856   -7.2000    0.0000 C   0  0  0  0  0  0  0  0  0  0  0  0
   -2.7713   -6.4000    0.0000 F   0  0  0  0  0  0  0  0  0  0  0  0
   -1.3856   -8.8000    0.0000 F   0  0  0  0  0  0  0  0  0  0  0  0
    1.3856   -4.0000    0.0000 C   0  0  0  0  0  0  0  0  0  0  0  0
    2.7713   -4.8000    0.0000 O   0  0  0  0  0  0  0  0  0  0  0  0
    4.1569   -4.0000    0.0000 C   0  0  0  0  0  0  0  0  0  0  0  0
    4.1569   -5.6000    0.0000 C   0  0  0  0  0  0  0  0  0  0  0  0
    5.5426   -3.2000    0.0000 C   0  0  0  0  0  0  0  0  0  0  0  0
    5.5426   -4.8000    0.0000 C   0  0  0  0  0  0  0  0  0  0  0  0
    1.3856   -2.4000    0.0000 C   0  0  0  0  0  0  0  0  0  0  0  0
  1  2  1  0  0  0  0
  1  5  1  0  0  0  0
  2  3  2  0  0  0  0
 10  2  1  0  0  0  0
  3  4  1  0  0  0  0
  4  5  1  0  0  0  0
  5  6  1  0  0  0  0
  6  7  1  0  0  0  0
  6  8  1  0  0  0  0
  6  9  1  0  0  0  0
 10 11  1  6  0  0  0
 10 18  1  0  0  0  0
 11 12  1  0  0  0  0
 11 17  2  0  0  0  0
 12 13  2  0  0  0  0
 13 14  1  0  0  0  0
 14 15  1  0  0  0  0
 14 16  2  0  0  0  0
 16 17  1  0  0  0  0
 18 19  1  0  0  0  0
 18 32  2  0  0  0  0
 19 20  2  0  0  0  0
 20 21  1  0  0  0  0
 21 22  1  0  0  0  0
 21 26  2  0  0  0  0
 22 23  1  0  0  0  0
 23 24  1  0  0  0  0
 23 25  1  0  0  0  0
 26 27  1  0  0  0  0
 26 32  1  0  0  0  0
 27 28  1  0  0  0  0
 28 29  1  0  0  0  0
 28 30  1  0  0  0  0
 28 31  1  0  0  0  0
M  CHG  2  14   1  15  -1
M  END
> <Acceptable>
true

> <IC50>
58.4

$$$$

Generated by Molecular Materials Informatics

 37 39  0  0  0  0  0  0  0  0999 V2000
    2.2158    1.7943    0.0000 S   0  0  0  0  0  0  0  0  0  0  0  0
    2.3831    3.3856    0.0000 C   0  0  0  0  0  0  0  0  0  0  0  0
    0.9214    4.0363    0.0000 C   0  0  0  0  0  0  0  0  0  0  0  0
   -0.1492    2.8473    0.0000 N   0  0  0  0  0  0  0  0  0  0  0  0
    0.6508    1.4617    0.0000 C   0  0  0  0  0  0  0  0  0  0  0  0
    0.0000    0.0000    0.0000 C   0  0  0  0  0  0  0  0  0  0  0  0
    1.4617   -0.6508    0.0000 O   0  0  0  0  0  0  0  0  0  0  0  0
   -1.4617    0.6508    0.0000 C   0  0  0  0  0  0  0  0  0  0  0  0
   -1.6289    2.2420    0.0000 F   0  0  0  0  0  0  0  0  0  0  0  0
   -2.7561   -0.2897    0.0000 F   0  0  0  0  0  0  0  0  0  0  0  0
   -2.9233    1.3016    0.0000 F   0  0  0  0  0  0  0  0  0  0  0  0
   -0.6508   -1.4617    0.0000 C   0  0  0  0  0  0  0  0  0  0  0  0
    0.2897   -2.7561    0.0000 F   0  0  0  0  0  0  0  0  0  0  0  0
   -2.2420   -1.6289    0.0000 F   0  0  0  0  0  0  0  0  0  0  0  0
   -1.3016   -2.9233    0.0000 F   0  0  0  0  0  0  0  0  0  0  0  0
    3.7687    4.1856    0.0000 C   0  0  0  0  0  0  0  0  0  0  0  0
    3.7687    5.7856    0.0000 C   0  0  0  0  0  0  0  0  0  0  0  0
    5.1543    6.5856    0.0000 C   0  0  0  0  0  0  0  0  0  0  0  0
    5.1543    8.1856    0.0000 N   0  3  0  0  0  0  0  0  0  0  0  0
    6.5400    8.9856    0.0000 O   0  5  0  0  0  0  0  0  0  0  0  0
    3.7687    8.9856    0.0000 C   0  0  0  0  0  0  0  0  0  0  0  0
    2.3831    8.1856    0.0000 C   0  0  0  0  0  0  0  0  0  0  0  0
    2.3831    6.5856    0.0000 C   0  0  0  0  0  0  0  0  0  0  0  0
    5.1543    3.3856    0.0000 C   0  0  0  0  0  0  0  0  0  0  0  0
    5.1543    1.7856    0.0000 C   0  0  0  0  0  0  0  0  0  0  0  0
    6.5400    0.9856    0.0000 C   0  0  0  0  0  0  0  0  0  0  0  0
    7.9256    1.7856    0.0000 C   0  0  0  0  0  0  0  0  0  0  0  0
    9.3113    0.9856    0.0000 O   0  0  0  0  0  0  0  0  0  0  0  0
    9.3113   -0.6144    0.0000 C   0  0  0  0  0  0  0  0  0  0  0  0
    7.9256   -1.4144    0.0000 F   0  0  0  0  0  0  0  0  0  0  0  0
   10.6969   -1.4144    0.0000 F   0  0  0  0  0  0  0  0  0  0  0  0
    7.9256    3.3856    0.0000 C   0  0  0  0  0  0  0  0  0  0  0  0
    9.3113    4.1856    0.0000 O   0  0  0  0  0  0  0  0  0  0  0  0
    9.3113    5.7856    0.0000 C   0  0  0  0  0  0  0  0  0  0  0  0
    7.9256    6.5856    0.0000 C   0  0  0  0  0  0  0  0  0  0  0  0
   10.6969    6.5856    0.0000 C   0  0  0  0  0  0  0  0  0  0  0  0
    6.5400    4.1856    0.0000 C   0  0  0  0  0  0  0  0  0  0  0  0
  1  2  1  0  0  0  0
  1  5  1  0  0  0  0
  2  3  2  0  0  0  0
 16  2  1  0  0  0  0
  3  4  1  0  0  0  0
  4  5  1  0  0  0  0
  5  6  1  0  0  0  0
  6  7  1  0  0  0  0
  6  8  1  0  0  0  0
  6 12  1  0  0  0  0
  8  9  1  0  0  0  0
  8 10  1  0  0  0  0
  8 11  1  0  0  0  0
 12 13  1  0  0  0  0
 12 14  1  0  0  0  0
 12 15  1  0  0  0  0
 16 17  1  6  0  0  0
 16 24  1  0  0  0  0
 17 18  1  0  0  0  0
 17 23  2  0  0  0  0
 18 19  2  0  0  0  0
 19 20  1  0  0  0  0
 19 21  1  0  0  0  0
 21 22  2  0  0  0  0
 22 23  1  0  0  0  0
 24 25  1  0  0  0  0
 24 37  2  0  0  0  0
 25 26  2  0  0  0  0
 26 27  1  0  0  0  0
 27 28  1  0  0  0  0
 27 32  2  0  0  0  0
 28 29  1  0  0  0  0
 29 30  1  0  0  0  0
 29 31  1  0  0  0  0
 32 33  1  0  0  0  0
 32 37  1  0  0  0  0
 33 34  1  0  0  0  0
 34 35  1  0  0  0  0
 34 36  1  0  0  0  0
M  CHG  2  19   1  20  -1
M  END
> <Acceptable>
false

> <IC50>
38.1

$$$$

Generated by Molecular Materials Informatics

 37 39  0  0  0  0  0  0  0  0999 V2000
    2.6618   -1.0218    0.0000 S   0  0  0  0  0  0  0  0  0  0  0  0
    4.1235   -0.3710    0.0000 C   0  0  0  0  0  0  0  0  0  0  0  0
    3.9563    1.2202    0.0000 C   0  0  0  0  0  0  0  0  0  0  0  0
    2.3912    1.5529    0.0000 N   0  0  0  0  0  0  0  0  0  0  0  0
    1.5912    0.1672    0.0000 C   0  0  0  0  0  0  0  0  0  0  0  0
    0.0000    0.0000    0.0000 C   0  0  0  0  0  0  0  0  0  0  0  0
    0.1672   -1.5912    0.0000 O   0  0  0  0  0  0  0  0  0  0  0  0
   -0.1672    1.5912    0.0000 C   0  0  0  0  0  0  0  0  0  0  0  0
    1.1272    2.5317    0.0000 F   0  0  0  0  0  0  0  0  0  0  0  0
   -1.6289    2.2420    0.0000 F   0  0  0  0  0  0  0  0  0  0  0  0
   -0.3345    3.1825    0.0000 F   0  0  0  0  0  0  0  0  0  0  0  0
   -1.5912   -0.1672    0.0000 C   0  0  0  0  0  0  0  0  0  0  0  0
   -2.2420   -1.6289    0.0000 F   0  0  0  0  0  0  0  0  0  0  0  0
   -2.5317    1.1272    0.0000 F   0  0  0  0  0  0  0  0  0  0  0  0
   -3.1825   -0.3345    0.0000 F   0  0  0  0  0  0  0  0  0  0  0  0
    5.5092   -1.1710    0.0000 C   0  0  0  0  0  0  0  0  0  0  0  0
    6.8948   -0.3710    0.0000 C   0  0  0  0  0  0  0  0  0  0  0  0
    8.2804   -1.1710    0.0000 C   0  0  0  0  0  0  0  0  0  0  0  0
    9.6661   -0.3710    0.0000 C   0  0  0  0  0  0  0  0  0  0  0  0
    9.6661    1.2290    0.0000 N   0  3  0  0  0  0  0  0  0  0  0  0
   11.0517    2.0290    0.0000 O   0  5  0  0  0  0  0  0  0  0  0  0
    8.2804    2.0290    0.0000 C   0  0  0  0  0  0  0  0  0  0  0  0
    6.8948    1.2290    0.0000 C   0  0  0  0  0  0  0  0  0  0  0  0
    5.5092   -2.7710    0.0000 C   0  0  0  0  0  0  0  0  0  0  0  0
    4.1235   -3.5710    0.0000 C   0  0  0  0  0  0  0  0  0  0  0  0
    4.1235   -5.1710    0.0000 C   0  0  0  0  0  0  0  0  0  0  0  0
    5.5092   -5.9710    0.0000 C   0  0  0  0  0  0  0  0  0  0  0  0
    5.5092   -7.5710    0.0000 O   0  0  0  0  0  0  0  0  0  0  0  0
    4.1235   -8.3710    0.0000 C   0  0  0  0  0  0  0  0  0  0  0  0
    2.7379   -7.5710    0.0000 F   0  0  0  0  0  0  0  0  0  0  0  0
    4.1235   -9.9710    0.0000 F   0  0  0  0  0  0  0  0  0  0  0  0
    6.8948   -5.1710    0.0000 C   0  0  0  0  0  0  0  0  0  0  0  0
    8.2804   -5.9710    0.0000 O   0  0  0  0  0  0  0  0  0  0  0  0
    9.6661   -5.1710    0.0000 C   0  0  0  0  0  0  0  0  0  0  0  0
    9.6661   -3.5710    0.0000 C   0  0  0  0  0  0  0  0  0  0  0  0
   11.0517   -5.9710    0.0000 C   0  0  0  0  0  0  0  0  0  0  0  0
    6.8948   -3.5710    0.0000 C   0  0  0  0  0  0  0  0  0  0  0  0
  1  2  1  0  0  0  0
  1  5  1  0  0  0  0
  2  3  2  0  0  0  0
  2 16  1  0  0  0  0
  3  4  1  0  0  0  0
  4  5  1  0  0  0  0
  5  6  1  0  0  0  0
  6  7  1  0  0  0  0
  6  8  1  0  0  0  0
  6 12  1  0  0  0  0
  8  9  1  0  0  0  0
  8 10  1  0  0  0  0
  8 11  1  0  0  0  0
 12 13  1  0  0  0  0
 12 14  1  0  0  0  0
 12 15  1  0  0  0  0
 16 17  1  0  0  0  0
 16 24  1  0  0  0  0
 17 18  1  0  0  0  0
 17 23  2  0  0  0  0
 18 19  2  0  0  0  0
 19 20  1  0  0  0  0
 20 21  1  0  0  0  0
 20 22  2  0  0  0  0
 22 23  1  0  0  0  0
 24 25  1  0  0  0  0
 24 37  2  0  0  0  0
 25 26  2  0  0  0  0
 26 27  1  0  0  0  0
 27 28  1  0  0  0  0
 27 32  2  0  0  0  0
 28 29  1  0  0  0  0
 29 30  1  0  0  0  0
 29 31  1  0  0  0  0
 32 33  1  0  0  0  0
 32 37  1  0  0  0  0
 33 34  1  0  0  0  0
 34 35  1  0  0  0  0
 34 36  1  0  0  0  0
M  CHG  2  20   1  21  -1
M  END
> <Acceptable>
false

> <IC50>
21

$$$$

Generated by Molecular Materials Informatics

 38 40  0  0  0  0  0  0  0  0999 V2000
    2.6618   -1.0218    0.0000 S   0  0  0  0  0  0  0  0  0  0  0  0
    4.1235   -0.3710    0.0000 C   0  0  0  0  0  0  0  0  0  0  0  0
    3.9563    1.2202    0.0000 C   0  0  0  0  0  0  0  0  0  0  0  0
    2.3912    1.5529    0.0000 N   0  0  0  0  0  0  0  0  0  0  0  0
    1.5912    0.1672    0.0000 C   0  0  0  0  0  0  0  0  0  0  0  0
    0.0000    0.0000    0.0000 C   0  0  0  0  0  0  0  0  0  0  0  0
    0.1672   -1.5912    0.0000 O   0  0  0  0  0  0  0  0  0  0  0  0
   -0.1672    1.5912    0.0000 C   0  0  0  0  0  0  0  0  0  0  0  0
    1.1272    2.5317    0.0000 F   0  0  0  0  0  0  0  0  0  0  0  0
   -1.6289    2.2420    0.0000 F   0  0  0  0  0  0  0  0  0  0  0  0
   -0.3345    3.1825    0.0000 F   0  0  0  0  0  0  0  0  0  0  0  0
   -1.5912   -0.1672    0.0000 C   0  0  0  0  0  0  0  0  0  0  0  0
   -2.2420   -1.6289    0.0000 F   0  0  0  0  0  0  0  0  0  0  0  0
   -2.5317    1.1272    0.0000 F   0  0  0  0  0  0  0  0  0  0  0  0
   -3.1825   -0.3345    0.0000 F   0  0  0  0  0  0  0  0  0  0  0  0
    5.5092   -1.1710    0.0000 C   0  0  0  0  0  0  0  0  0  0  0  0
    6.8948   -0.3710    0.0000 C   0  0  0  0  0  0  0  0  0  0  0  0
    8.2804   -1.1710    0.0000 C   0  0  0  0  0  0  0  0  0  0  0  0
    9.6661   -0.3710    0.0000 C   0  0  0  0  0  0  0  0  0  0  0  0
    9.6661    1.2290    0.0000 N   0  3  0  0  0  0  0  0  0  0  0  0
   11.0517    2.0290    0.0000 O   0  5  0  0  0  0  0  0  0  0  0  0
    8.2804    2.0290    0.0000 C   0  0  0  0  0  0  0  0  0  0  0  0
    6.8948    1.2290    0.0000 C   0  0  0  0  0  0  0  0  0  0  0  0
    5.5092   -2.7710    0.0000 C   0  0  0  0  0  0  0  0  0  0  0  0
    4.1235   -3.5710    0.0000 C   0  0  0  0  0  0  0  0  0  0  0  0
    4.1235   -5.1710    0.0000 C   0  0  0  0  0  0  0  0  0  0  0  0
    5.5092   -5.9710    0.0000 C   0  0  0  0  0  0  0  0  0  0  0  0
    5.5092   -7.5710    0.0000 O   0  0  0  0  0  0  0  0  0  0  0  0
    4.1235   -8.3710    0.0000 C   0  0  0  0  0  0  0  0  0  0  0  0
    2.7379   -7.5710    0.0000 F   0  0  0  0  0  0  0  0  0  0  0  0
    4.1235   -9.9710    0.0000 F   0  0  0  0  0  0  0  0  0  0  0  0
    6.8948   -5.1710    0.0000 C   0  0  0  0  0  0  0  0  0  0  0  0
    8.2804   -5.9710    0.0000 O   0  0  0  0  0  0  0  0  0  0  0  0
    9.6661   -5.1710    0.0000 C   0  0  0  0  0  0  0  0  0  0  0  0
    9.6661   -6.7710    0.0000 C   0  0  0  0  0  0  0  0  0  0  0  0
   11.0517   -4.3710    0.0000 C   0  0  0  0  0  0  0  0  0  0  0  0
   11.0517   -5.9710    0.0000 C   0  0  0  0  0  0  0  0  0  0  0  0
    6.8948   -3.5710    0.0000 C   0  0  0  0  0  0  0  0  0  0  0  0
  1  2  1  0  0  0  0
  1  5  1  0  0  0  0
  2  3  2  0  0  0  0
  2 16  1  0  0  0  0
  3  4  1  0  0  0  0
  4  5  1  0  0  0  0
  5  6  1  0  0  0  0
  6  7  1  0  0  0  0
  6  8  1  0  0  0  0
  6 12  1  0  0  0  0
  8  9  1  0  0  0  0
  8 10  1  0  0  0  0
  8 11  1  0  0  0  0
 12 13  1  0  0  0  0
 12 14  1  0  0  0  0
 12 15  1  0  0  0  0
 16 17  1  0  0  0  0
 16 24  1  0  0  0  0
 17 18  1  0  0  0  0
 17 23  2  0  0  0  0
 18 19  2  0  0  0  0
 19 20  1  0  0  0  0
 20 21  1  0  0  0  0
 20 22  2  0  0  0  0
 22 23  1  0  0  0  0
 24 25  1  0  0  0  0
 24 38  2  0  0  0  0
 25 26  2  0  0  0  0
 26 27  1  0  0  0  0
 27 28  1  0  0  0  0
 27 32  2  0  0  0  0
 28 29  1  0  0  0  0
 29 30  1  0  0  0  0
 29 31  1  0  0  0  0
 32 33  1  0  0  0  0
 32 38  1  0  0  0  0
 33 34  1  0  0  0  0
 34 35  1  0  0  0  0
 34 36  1  0  0  0  0
 34 37  1  0  0  0  0
M  CHG  2  20   1  21  -1
M  END
> <Acceptable>
true

> <IC50>
61.4

$$$$

Generated by Molecular Materials Informatics

 37 39  0  0  0  0  0  0  0  0999 V2000
    2.2158    1.7943    0.0000 S   0  0  0  0  0  0  0  0  0  0  0  0
    2.3831    3.3856    0.0000 C   0  0  0  0  0  0  0  0  0  0  0  0
    0.9214    4.0363    0.0000 C   0  0  0  0  0  0  0  0  0  0  0  0
   -0.1492    2.8473    0.0000 N   0  0  0  0  0  0  0  0  0  0  0  0
    0.6508    1.4617    0.0000 C   0  0  0  0  0  0  0  0  0  0  0  0
    0.0000    0.0000    0.0000 C   0  0  0  0  0  0  0  0  0  0  0  0
    1.4617   -0.6508    0.0000 O   0  0  0  0  0  0  0  0  0  0  0  0
   -1.4617    0.6508    0.0000 C   0  0  0  0  0  0  0  0  0  0  0  0
   -1.6289    2.2420    0.0000 F   0  0  0  0  0  0  0  0  0  0  0  0
   -2.7561   -0.2897    0.0000 F   0  0  0  0  0  0  0  0  0  0  0  0
   -2.9233    1.3016    0.0000 F   0  0  0  0  0  0  0  0  0  0  0  0
   -0.6508   -1.4617    0.0000 C   0  0  0  0  0  0  0  0  0  0  0  0
    0.2897   -2.7561    0.0000 F   0  0  0  0  0  0  0  0  0  0  0  0
   -2.2420   -1.6289    0.0000 F   0  0  0  0  0  0  0  0  0  0  0  0
   -1.3016   -2.9233    0.0000 F   0  0  0  0  0  0  0  0  0  0  0  0
    3.7687    4.1856    0.0000 C   0  0  0  0  0  0  0  0  0  0  0  0
    3.7687    5.7856    0.0000 C   0  0  0  0  0  0  0  0  0  0  0  0
    5.1543    6.5856    0.0000 C   0  0  0  0  0  0  0  0  0  0  0  0
    5.1543    8.1856    0.0000 N   0  3  0  0  0  0  0  0  0  0  0  0
    6.5400    8.9856    0.0000 O   0  5  0  0  0  0  0  0  0  0  0  0
    3.7687    8.9856    0.0000 C   0  0  0  0  0  0  0  0  0  0  0  0
    2.3831    8.1856    0.0000 C   0  0  0  0  0  0  0  0  0  0  0  0
    2.3831    6.5856    0.0000 C   0  0  0  0  0  0  0  0  0  0  0  0
    5.1543    3.3856    0.0000 C   0  0  0  0  0  0  0  0  0  0  0  0
    5.1543    1.7856    0.0000 C   0  0  0  0  0  0  0  0  0  0  0  0
    6.5400    0.9856    0.0000 C   0  0  0  0  0  0  0  0  0  0  0  0
    7.9256    1.7856    0.0000 C   0  0  0  0  0  0  0  0  0  0  0  0
    9.3113    0.9856    0.0000 O   0  0  0  0  0  0  0  0  0  0  0  0
    9.3113   -0.6144    0.0000 C   0  0  0  0  0  0  0  0  0  0  0  0
    7.9256   -1.4144    0.0000 F   0  0  0  0  0  0  0  0  0  0  0  0
   10.6969   -1.4144    0.0000 F   0  0  0  0  0  0  0  0  0  0  0  0
    7.9256    3.3856    0.0000 C   0  0  0  0  0  0  0  0  0  0  0  0
    9.3113    4.1856    0.0000 O   0  0  0  0  0  0  0  0  0  0  0  0
    9.3113    5.7856    0.0000 C   0  0  0  0  0  0  0  0  0  0  0  0
    7.9256    6.5856    0.0000 C   0  0  0  0  0  0  0  0  0  0  0  0
   10.6969    6.5856    0.0000 C   0  0  0  0  0  0  0  0  0  0  0  0
    6.5400    4.1856    0.0000 C   0  0  0  0  0  0  0  0  0  0  0  0
  1  2  1  0  0  0  0
  1  5  1  0  0  0  0
  2  3  2  0  0  0  0
  2 16  1  0  0  0  0
  3  4  1  0  0  0  0
  4  5  1  0  0  0  0
  5  6  1  0  0  0  0
  6  7  1  0  0  0  0
  6  8  1  0  0  0  0
  6 12  1  0  0  0  0
  8  9  1  0  0  0  0
  8 10  1  0  0  0  0
  8 11  1  0  0  0  0
 12 13  1  0  0  0  0
 12 14  1  0  0  0  0
 12 15  1  0  0  0  0
 16 17  1  0  0  0  0
 16 24  1  0  0  0  0
 17 18  1  0  0  0  0
 17 23  2  0  0  0  0
 18 19  2  0  0  0  0
 19 20  1  0  0  0  0
 19 21  1  0  0  0  0
 21 22  2  0  0  0  0
 22 23  1  0  0  0  0
 24 25  1  0  0  0  0
 24 37  2  0  0  0  0
 25 26  2  0  0  0  0
 26 27  1  0  0  0  0
 27 28  1  0  0  0  0
 27 32  2  0  0  0  0
 28 29  1  0  0  0  0
 29 30  1  0  0  0  0
 29 31  1  0  0  0  0
 32 33  1  0  0  0  0
 32 37  1  0  0  0  0
 33 34  1  0  0  0  0
 34 35  1  0  0  0  0
 34 36  1  0  0  0  0
M  CHG  2  19   1  20  -1
M  END
> <Acceptable>
false

> <IC50>
39

$$$$

Generated by Molecular Materials Informatics

 33 36  0  0  0  0  0  0  0  0999 V2000
   -4.7737    0.5017    0.0000 S   0  0  0  0  0  0  0  0  0  0  0  0
   -6.3649    0.6690    0.0000 C   0  0  0  0  0  0  0  0  0  0  0  0
   -7.0157    2.1307    0.0000 C   0  0  0  0  0  0  0  0  0  0  0  0
   -4.1229   -0.9599    0.0000 C   0  0  0  0  0  0  0  0  0  0  0  0
   -5.0634   -2.2544    0.0000 N   0  0  0  0  0  0  0  0  0  0  0  0
   -4.4126   -3.7160    0.0000 C   0  0  0  0  0  0  0  0  0  0  0  0
   -2.8214   -3.8833    0.0000 C   0  0  0  0  0  0  0  0  0  0  0  0
   -1.8809   -2.5889    0.0000 C   0  0  0  0  0  0  0  0  0  0  0  0
   -2.5317   -1.1272    0.0000 C   0  0  0  0  0  0  0  0  0  0  0  0
   -1.5912    0.1672    0.0000 C   0  0  0  0  0  0  0  0  0  0  0  0
   -2.2420    1.6289    0.0000 O   0  0  0  0  0  0  0  0  0  0  0  0
    0.0000    0.0000    0.0000 N   0  0  0  0  0  0  0  0  0  0  0  0
    0.8000   -1.3856    0.0000 C   0  0  0  0  0  0  0  0  0  0  0  0
    2.3650   -1.0530    0.0000 C   0  0  0  0  0  0  0  0  0  0  0  0
    2.5323    0.5383    0.0000 C   0  0  0  0  0  0  0  0  0  0  0  0
    3.9179    1.3383    0.0000 N   0  0  0  0  0  0  0  0  0  0  0  0
    5.3036    0.5383    0.0000 C   0  0  0  0  0  0  0  0  0  0  0  0
    6.6892    1.3383    0.0000 C   0  0  0  0  0  0  0  0  0  0  0  0
    8.1509    0.6875    0.0000 N   0  0  0  0  0  0  0  0  0  0  0  0
    9.2215    1.8765    0.0000 C   0  0  0  0  0  0  0  0  0  0  0  0
    8.4215    3.2621    0.0000 N   0  0  0  0  0  0  0  0  0  0  0  0
    6.8565    2.9295    0.0000 C   0  0  0  0  0  0  0  0  0  0  0  0
    8.4835   -0.8776    0.0000 C   0  0  0  0  0  0  0  0  0  0  0  0
   10.0052   -1.3720    0.0000 C   0  0  0  0  0  0  0  0  0  0  0  0
   10.3379   -2.9370    0.0000 C   0  0  0  0  0  0  0  0  0  0  0  0
   11.8596   -3.4315    0.0000 C   0  0  0  0  0  0  0  0  0  0  0  0
   13.0486   -2.3608    0.0000 C   0  0  0  0  0  0  0  0  0  0  0  0
   14.5703   -2.8553    0.0000 C   0  0  0  0  0  0  0  0  0  0  0  0
   16.0920   -3.3497    0.0000 N   0  0  0  0  0  0  0  0  0  0  0  0
   12.7159   -0.7958    0.0000 C   0  0  0  0  0  0  0  0  0  0  0  0
   11.1943   -0.3014    0.0000 C   0  0  0  0  0  0  0  0  0  0  0  0
    1.0706    1.1890    0.0000 C   0  0  0  0  0  0  0  0  0  0  0  0
    0.7380    2.7541    0.0000 O   0  0  0  0  0  0  0  0  0  0  0  0
  1  2  1  0  0  0  0
  1  4  1  0  0  0  0
  2  3  1  0  0  0  0
  4  5  1  0  0  0  0
  4  9  2  0  0  0  0
  5  6  2  0  0  0  0
  6  7  1  0  0  0  0
  7  8  2  0  0  0  0
  8  9  1  0  0  0  0
  9 10  1  0  0  0  0
 10 11  2  0  0  0  0
 10 12  1  0  0  0  0
 12 13  1  0  0  0  0
 12 32  1  0  0  0  0
 13 14  1  0  0  0  0
 14 15  1  0  0  0  0
 15 16  1  0  0  0  0
 15 32  1  0  0  0  0
 16 17  1  0  0  0  0
 17 18  1  0  0  0  0
 18 19  1  0  0  0  0
 18 22  2  0  0  0  0
 19 20  1  0  0  0  0
 19 23  1  0  0  0  0
 20 21  2  0  0  0  0
 21 22  1  0  0  0  0
 23 24  1  0  0  0  0
 24 25  1  0  0  0  0
 24 31  2  0  0  0  0
 25 26  2  0  0  0  0
 26 27  1  0  0  0  0
 27 28  1  0  0  0  0
 27 30  2  0  0  0  0
 28 29  3  0  0  0  0
 30 31  1  0  0  0  0
 32 33  2  0  0  0  0
M  END
> <Acceptable>
false

> <IC50>
14

$$$$

Generated by Molecular Materials Informatics

 32 35  0  0  0  0  0  0  0  0999 V2000
   -4.7737    0.5017    0.0000 S   0  0  0  0  0  0  0  0  0  0  0  0
   -6.3649    0.6690    0.0000 C   0  0  0  0  0  0  0  0  0  0  0  0
   -4.1229   -0.9599    0.0000 C   0  0  0  0  0  0  0  0  0  0  0  0
   -5.0634   -2.2544    0.0000 N   0  0  0  0  0  0  0  0  0  0  0  0
   -4.4126   -3.7160    0.0000 C   0  0  0  0  0  0  0  0  0  0  0  0
   -2.8214   -3.8833    0.0000 C   0  0  0  0  0  0  0  0  0  0  0  0
   -1.8809   -2.5889    0.0000 C   0  0  0  0  0  0  0  0  0  0  0  0
   -2.5317   -1.1272    0.0000 C   0  0  0  0  0  0  0  0  0  0  0  0
   -1.5912    0.1672    0.0000 C   0  0  0  0  0  0  0  0  0  0  0  0
   -2.2420    1.6289    0.0000 O   0  0  0  0  0  0  0  0  0  0  0  0
    0.0000    0.0000    0.0000 N   0  0  0  0  0  0  0  0  0  0  0  0
    0.8000   -1.3856    0.0000 C   0  0  0  0  0  0  0  0  0  0  0  0
    2.3650   -1.0530    0.0000 C   0  0  0  0  0  0  0  0  0  0  0  0
    2.5323    0.5383    0.0000 C   0  0  0  0  0  0  0  0  0  0  0  0
    3.9179    1.3383    0.0000 N   0  0  0  0  0  0  0  0  0  0  0  0
    5.3036    0.5383    0.0000 C   0  0  0  0  0  0  0  0  0  0  0  0
    6.6892    1.3383    0.0000 C   0  0  0  0  0  0  0  0  0  0  0  0
    8.1509    0.6875    0.0000 N   0  0  0  0  0  0  0  0  0  0  0  0
    9.2215    1.8765    0.0000 C   0  0  0  0  0  0  0  0  0  0  0  0
    8.4215    3.2621    0.0000 N   0  0  0  0  0  0  0  0  0  0  0  0
    6.8565    2.9295    0.0000 C   0  0  0  0  0  0  0  0  0  0  0  0
    8.4835   -0.8776    0.0000 C   0  0  0  0  0  0  0  0  0  0  0  0
   10.0052   -1.3720    0.0000 C   0  0  0  0  0  0  0  0  0  0  0  0
   10.3379   -2.9370    0.0000 C   0  0  0  0  0  0  0  0  0  0  0  0
   11.8596   -3.4315    0.0000 C   0  0  0  0  0  0  0  0  0  0  0  0
   13.0486   -2.3608    0.0000 C   0  0  0  0  0  0  0  0  0  0  0  0
   14.5703   -2.8553    0.0000 C   0  0  0  0  0  0  0  0  0  0  0  0
   16.0920   -3.3497    0.0000 N   0  0  0  0  0  0  0  0  0  0  0  0
   12.7159   -0.7958    0.0000 C   0  0  0  0  0  0  0  0  0  0  0  0
   11.1943   -0.3014    0.0000 C   0  0  0  0  0  0  0  0  0  0  0  0
    1.0706    1.1890    0.0000 C   0  0  0  0  0  0  0  0  0  0  0  0
    0.7380    2.7541    0.0000 O   0  0  0  0  0  0  0  0  0  0  0  0
  1  2  1  0  0  0  0
  1  3  1  0  0  0  0
  3  4  1  0  0  0  0
  3  8  2  0  0  0  0
  4  5  2  0  0  0  0
  5  6  1  0  0  0  0
  6  7  2  0  0  0  0
  7  8  1  0  0  0  0
  8  9  1  0  0  0  0
  9 10  2  0  0  0  0
  9 11  1  0  0  0  0
 11 12  1  0  0  0  0
 11 31  1  0  0  0  0
 12 13  1  0  0  0  0
 13 14  1  0  0  0  0
 14 15  1  0  0  0  0
 14 31  1  0  0  0  0
 15 16  1  0  0  0  0
 16 17  1  0  0  0  0
 17 18  1  0  0  0  0
 17 21  2  0  0  0  0
 18 19  1  0  0  0  0
 18 22  1  0  0  0  0
 19 20  2  0  0  0  0
 20 21  1  0  0  0  0
 22 23  1  0  0  0  0
 23 24  1  0  0  0  0
 23 30  2  0  0  0  0
 24 25  2  0  0  0  0
 25 26  1  0  0  0  0
 26 27  1  0  0  0  0
 26 29  2  0  0  0  0
 27 28  3  0  0  0  0
 29 30  1  0  0  0  0
 31 32  2  0  0  0  0
M  END
> <Acceptable>
false

> <IC50>
7.8

$$$$

Generated by Molecular Materials Informatics

 32 36  0  0  0  0  0  0  0  0999 V2000
   -2.0460   -2.8161    0.0000 O   0  0  0  0  0  0  0  0  0  0  0  0
   -2.5405   -1.2944    0.0000 C   0  0  0  0  0  0  0  0  0  0  0  0
   -1.6000    0.0000    0.0000 N   0  0  0  0  0  0  0  0  0  0  0  0
   -2.5405    1.2944    0.0000 C   0  0  0  0  0  0  0  0  0  0  0  0
   -4.0621    0.8000    0.0000 C   0  0  0  0  0  0  0  0  0  0  0  0
   -4.0621   -0.8000    0.0000 C   0  0  0  0  0  0  0  0  0  0  0  0
   -5.3566   -1.7405    0.0000 N   0  0  0  0  0  0  0  0  0  0  0  0
   -6.8182   -1.0897    0.0000 C   0  0  0  0  0  0  0  0  0  0  0  0
   -8.1127   -2.0301    0.0000 C   0  0  0  0  0  0  0  0  0  0  0  0
   -9.6344   -1.5357    0.0000 N   0  0  0  0  0  0  0  0  0  0  0  0
  -10.5748   -2.8301    0.0000 C   0  0  0  0  0  0  0  0  0  0  0  0
   -9.6344   -4.1246    0.0000 N   0  0  0  0  0  0  0  0  0  0  0  0
   -8.1127   -3.6301    0.0000 C   0  0  0  0  0  0  0  0  0  0  0  0
  -10.1288   -0.0140    0.0000 C   0  0  0  0  0  0  0  0  0  0  0  0
  -11.6938    0.3186    0.0000 C   0  0  0  0  0  0  0  0  0  0  0  0
  -12.1883    1.8403    0.0000 C   0  0  0  0  0  0  0  0  0  0  0  0
  -13.7533    2.1730    0.0000 C   0  0  0  0  0  0  0  0  0  0  0  0
  -14.8239    0.9840    0.0000 C   0  0  0  0  0  0  0  0  0  0  0  0
  -16.3889    1.3166    0.0000 C   0  0  0  0  0  0  0  0  0  0  0  0
  -17.9540    1.6493    0.0000 N   0  0  0  0  0  0  0  0  0  0  0  0
  -14.3295   -0.5377    0.0000 C   0  0  0  0  0  0  0  0  0  0  0  0
  -12.7644   -0.8704    0.0000 C   0  0  0  0  0  0  0  0  0  0  0  0
    0.0000    0.0000    0.0000 C   0  0  0  0  0  0  0  0  0  0  0  0
    0.8000   -1.3856    0.0000 C   0  0  0  0  0  0  0  0  0  0  0  0
    2.4000   -1.3856    0.0000 C   0  0  0  0  0  0  0  0  0  0  0  0
    3.2000    0.0000    0.0000 C   0  0  0  0  0  0  0  0  0  0  0  0
    2.4000    1.3856    0.0000 C   0  0  0  0  0  0  0  0  0  0  0  0
    3.2000    2.7713    0.0000 N   0  0  0  0  0  0  0  0  0  0  0  0
    2.4000    4.1569    0.0000 C   0  0  0  0  0  0  0  0  0  0  0  0
    0.8000    4.1569    0.0000 C   0  0  0  0  0  0  0  0  0  0  0  0
    0.0000    2.7713    0.0000 C   0  0  0  0  0  0  0  0  0  0  0  0
    0.8000    1.3856    0.0000 C   0  0  0  0  0  0  0  0  0  0  0  0
  1  2  2  0  0  0  0
  2  3  1  0  0  0  0
  2  6  1  0  0  0  0
  3  4  1  0  0  0  0
  3 23  1  0  0  0  0
  4  5  1  0  0  0  0
  5  6  1  0  0  0  0
  6  7  1  0  0  0  0
  7  8  1  0  0  0  0
  8  9  1  0  0  0  0
  9 10  1  0  0  0  0
  9 13  2  0  0  0  0
 10 11  1  0  0  0  0
 10 14  1  0  0  0  0
 11 12  2  0  0  0  0
 12 13  1  0  0  0  0
 14 15  1  0  0  0  0
 15 16  1  0  0  0  0
 15 22  2  0  0  0  0
 16 17  2  0  0  0  0
 17 18  1  0  0  0  0
 18 19  1  0  0  0  0
 18 21  2  0  0  0  0
 19 20  3  0  0  0  0
 21 22  1  0  0  0  0
 23 24  1  0  0  0  0
 23 32  2  0  0  0  0
 24 25  2  0  0  0  0
 25 26  1  0  0  0  0
 26 27  2  0  0  0  0
 27 28  1  0  0  0  0
 27 32  1  0  0  0  0
 28 29  2  0  0  0  0
 29 30  1  0  0  0  0
 30 31  2  0  0  0  0
 31 32  1  0  0  0  0
M  END
> <Acceptable>
false

> <IC50>
8.2

$$$$

Generated by Molecular Materials Informatics

 28 31  0  0  0  0  0  0  0  0999 V2000
   -0.1492    2.8473    0.0000 O   0  0  0  0  0  0  0  0  0  0  0  0
   -0.8000    1.3856    0.0000 C   0  0  0  0  0  0  0  0  0  0  0  0
    0.0000    0.0000    0.0000 N   0  0  0  0  0  0  0  0  0  0  0  0
   -1.0706   -1.1890    0.0000 C   0  0  0  0  0  0  0  0  0  0  0  0
   -2.5323   -0.5383    0.0000 C   0  0  0  0  0  0  0  0  0  0  0  0
   -2.3650    1.0530    0.0000 C   0  0  0  0  0  0  0  0  0  0  0  0
   -3.5541    2.1236    0.0000 N   0  0  0  0  0  0  0  0  0  0  0  0
   -5.0758    1.6292    0.0000 C   0  0  0  0  0  0  0  0  0  0  0  0
   -6.2648    2.6998    0.0000 C   0  0  0  0  0  0  0  0  0  0  0  0
   -7.8298    2.3671    0.0000 N   0  0  0  0  0  0  0  0  0  0  0  0
   -8.6298    3.7528    0.0000 C   0  0  0  0  0  0  0  0  0  0  0  0
   -7.5592    4.9418    0.0000 N   0  0  0  0  0  0  0  0  0  0  0  0
   -6.0975    4.2910    0.0000 C   0  0  0  0  0  0  0  0  0  0  0  0
   -8.4806    0.9054    0.0000 C   0  0  0  0  0  0  0  0  0  0  0  0
  -10.0718    0.7382    0.0000 C   0  0  0  0  0  0  0  0  0  0  0  0
  -10.7226   -0.7235    0.0000 C   0  0  0  0  0  0  0  0  0  0  0  0
  -12.3139   -0.8907    0.0000 C   0  0  0  0  0  0  0  0  0  0  0  0
  -13.2543    0.4037    0.0000 C   0  0  0  0  0  0  0  0  0  0  0  0
  -14.8455    0.2365    0.0000 C   0  0  0  0  0  0  0  0  0  0  0  0
  -16.4368    0.0692    0.0000 N   0  0  0  0  0  0  0  0  0  0  0  0
  -12.6035    1.8654    0.0000 C   0  0  0  0  0  0  0  0  0  0  0  0
  -11.0123    2.0326    0.0000 C   0  0  0  0  0  0  0  0  0  0  0  0
    1.5912   -0.1672    0.0000 C   0  0  0  0  0  0  0  0  0  0  0  0
    2.5317    1.1272    0.0000 C   0  0  0  0  0  0  0  0  0  0  0  0
    4.1229    0.9599    0.0000 C   0  0  0  0  0  0  0  0  0  0  0  0
    4.7737   -0.5017    0.0000 N   0  0  0  0  0  0  0  0  0  0  0  0
    3.8332   -1.7962    0.0000 C   0  0  0  0  0  0  0  0  0  0  0  0
    2.2420   -1.6289    0.0000 C   0  0  0  0  0  0  0  0  0  0  0  0
  1  2  2  0  0  0  0
  2  3  1  0  0  0  0
  2  6  1  0  0  0  0
  3  4  1  0  0  0  0
  3 23  1  0  0  0  0
  4  5  1  0  0  0  0
  5  6  1  0  0  0  0
  6  7  1  0  0  0  0
  7  8  1  0  0  0  0
  8  9  1  0  0  0  0
  9 10  1  0  0  0  0
  9 13  2  0  0  0  0
 10 11  1  0  0  0  0
 10 14  1  0  0  0  0
 11 12  2  0  0  0  0
 12 13  1  0  0  0  0
 14 15  1  0  0  0  0
 15 16  1  0  0  0  0
 15 22  2  0  0  0  0
 16 17  2  0  0  0  0
 17 18  1  0  0  0  0
 18 19  1  0  0  0  0
 18 21  2  0  0  0  0
 19 20  3  0  0  0  0
 21 22  1  0  0  0  0
 23 24  1  0  0  0  0
 23 28  2  0  0  0  0
 24 25  2  0  0  0  0
 25 26  1  0  0  0  0
 26 27  2  0  0  0  0
 27 28  1  0  0  0  0
M  END
> <Acceptable>
false

> <IC50>
3.2

$$$$

Generated by Molecular Materials Informatics

 29 32  0  0  0  0  0  0  0  0999 V2000
   -0.1492    2.8473    0.0000 O   0  0  0  0  0  0  0  0  0  0  0  0
   -0.8000    1.3856    0.0000 C   0  0  0  0  0  0  0  0  0  0  0  0
    0.0000    0.0000    0.0000 N   0  0  0  0  0  0  0  0  0  0  0  0
   -1.0706   -1.1890    0.0000 C   0  0  0  0  0  0  0  0  0  0  0  0
   -2.5323   -0.5383    0.0000 C   0  0  0  0  0  0  0  0  0  0  0  0
   -2.3650    1.0530    0.0000 C   0  0  0  0  0  0  0  0  0  0  0  0
   -3.5541    2.1236    0.0000 N   0  0  0  0  0  0  0  0  0  0  0  0
   -5.0758    1.6292    0.0000 C   0  0  0  0  0  0  0  0  0  0  0  0
   -6.2648    2.6998    0.0000 C   0  0  0  0  0  0  0  0  0  0  0  0
   -7.8298    2.3671    0.0000 N   0  0  0  0  0  0  0  0  0  0  0  0
   -8.6298    3.7528    0.0000 C   0  0  0  0  0  0  0  0  0  0  0  0
   -7.5592    4.9418    0.0000 N   0  0  0  0  0  0  0  0  0  0  0  0
   -6.0975    4.2910    0.0000 C   0  0  0  0  0  0  0  0  0  0  0  0
   -8.4806    0.9054    0.0000 C   0  0  0  0  0  0  0  0  0  0  0  0
  -10.0718    0.7382    0.0000 C   0  0  0  0  0  0  0  0  0  0  0  0
  -10.7226   -0.7235    0.0000 C   0  0  0  0  0  0  0  0  0  0  0  0
  -12.3139   -0.8907    0.0000 C   0  0  0  0  0  0  0  0  0  0  0  0
  -13.2543    0.4037    0.0000 C   0  0  0  0  0  0  0  0  0  0  0  0
  -14.8455    0.2365    0.0000 C   0  0  0  0  0  0  0  0  0  0  0  0
  -16.4368    0.0692    0.0000 N   0  0  0  0  0  0  0  0  0  0  0  0
  -12.6035    1.8654    0.0000 C   0  0  0  0  0  0  0  0  0  0  0  0
  -11.0123    2.0326    0.0000 C   0  0  0  0  0  0  0  0  0  0  0  0
    1.5912   -0.1672    0.0000 C   0  0  0  0  0  0  0  0  0  0  0  0
    2.2420   -1.6289    0.0000 C   0  0  0  0  0  0  0  0  0  0  0  0
    3.8332   -1.7962    0.0000 C   0  0  0  0  0  0  0  0  0  0  0  0
    4.4840   -3.2578    0.0000 C   0  0  0  0  0  0  0  0  0  0  0  0
    3.5436   -4.5523    0.0000 C   0  0  0  0  0  0  0  0  0  0  0  0
    1.9523   -4.3850    0.0000 C   0  0  0  0  0  0  0  0  0  0  0  0
    1.3016   -2.9233    0.0000 C   0  0  0  0  0  0  0  0  0  0  0  0
  1  2  2  0  0  0  0
  2  3  1  0  0  0  0
  2  6  1  0  0  0  0
  3  4  1  0  0  0  0
  3 23  1  0  0  0  0
  4  5  1  0  0  0  0
  5  6  1  0  0  0  0
  6  7  1  0  0  0  0
  7  8  1  0  0  0  0
  8  9  1  0  0  0  0
  9 10  1  0  0  0  0
  9 13  2  0  0  0  0
 10 11  1  0  0  0  0
 10 14  1  0  0  0  0
 11 12  2  0  0  0  0
 12 13  1  0  0  0  0
 14 15  1  0  0  0  0
 15 16  1  0  0  0  0
 15 22  2  0  0  0  0
 16 17  2  0  0  0  0
 17 18  1  0  0  0  0
 18 19  1  0  0  0  0
 18 21  2  0  0  0  0
 19 20  3  0  0  0  0
 21 22  1  0  0  0  0
 23 24  1  0  0  0  0
 24 25  1  0  0  0  0
 24 29  2  0  0  0  0
 25 26  2  0  0  0  0
 26 27  1  0  0  0  0
 27 28  2  0  0  0  0
 28 29  1  0  0  0  0
M  END
> <Acceptable>
false

> <IC50>
7.2

$$$$

Generated by Molecular Materials Informatics

 32 35  0  0  0  0  0  0  0  0999 V2000
    0.1492    2.8473    0.0000 O   0  0  0  0  0  0  0  0  0  0  0  0
    0.8000    1.3856    0.0000 C   0  0  0  0  0  0  0  0  0  0  0  0
    0.0000    0.0000    0.0000 N   0  0  0  0  0  0  0  0  0  0  0  0
    1.0706   -1.1890    0.0000 C   0  0  0  0  0  0  0  0  0  0  0  0
    2.5323   -0.5383    0.0000 C   0  0  0  0  0  0  0  0  0  0  0  0
    2.3650    1.0530    0.0000 C   0  0  0  0  0  0  0  0  0  0  0  0
    3.5541    2.1236    0.0000 N   0  0  0  0  0  0  0  0  0  0  0  0
    5.0758    1.6292    0.0000 C   0  0  0  0  0  0  0  0  0  0  0  0
    6.2648    2.6998    0.0000 C   0  0  0  0  0  0  0  0  0  0  0  0
    7.8298    2.3671    0.0000 N   0  0  0  0  0  0  0  0  0  0  0  0
    8.6298    3.7528    0.0000 C   0  0  0  0  0  0  0  0  0  0  0  0
    7.5592    4.9418    0.0000 N   0  0  0  0  0  0  0  0  0  0  0  0
    6.0975    4.2910    0.0000 C   0  0  0  0  0  0  0  0  0  0  0  0
    8.4806    0.9054    0.0000 C   0  0  0  0  0  0  0  0  0  0  0  0
   10.0718    0.7382    0.0000 C   0  0  0  0  0  0  0  0  0  0  0  0
   10.7226   -0.7235    0.0000 C   0  0  0  0  0  0  0  0  0  0  0  0
   12.3139   -0.8907    0.0000 C   0  0  0  0  0  0  0  0  0  0  0  0
   13.2543    0.4037    0.0000 C   0  0  0  0  0  0  0  0  0  0  0  0
   14.8455    0.2365    0.0000 C   0  0  0  0  0  0  0  0  0  0  0  0
   16.4368    0.0692    0.0000 N   0  0  0  0  0  0  0  0  0  0  0  0
   12.6035    1.8654    0.0000 C   0  0  0  0  0  0  0  0  0  0  0  0
   11.0123    2.0326    0.0000 C   0  0  0  0  0  0  0  0  0  0  0  0
   -1.5912   -0.1672    0.0000 C   0  0  0  0  0  0  0  0  0  0  0  0
   -2.5317    1.1272    0.0000 O   0  0  0  0  0  0  0  0  0  0  0  0
   -2.2420   -1.6289    0.0000 C   0  0  0  0  0  0  0  0  0  0  0  0
   -3.8332   -1.7962    0.0000 C   0  0  0  0  0  0  0  0  0  0  0  0
   -4.4840   -3.2578    0.0000 C   0  0  0  0  0  0  0  0  0  0  0  0
   -3.5436   -4.5523    0.0000 C   0  0  0  0  0  0  0  0  0  0  0  0
   -1.9523   -4.3850    0.0000 N   0  0  0  0  0  0  0  0  0  0  0  0
   -1.3016   -2.9233    0.0000 C   0  0  0  0  0  0  0  0  0  0  0  0
    0.2897   -2.7561    0.0000 O   0  0  0  0  0  0  0  0  0  0  0  0
    1.2301   -4.0505    0.0000 C   0  0  0  0  0  0  0  0  0  0  0  0
  1  2  2  0  0  0  0
  2  3  1  0  0  0  0
  2  6  1  0  0  0  0
  3  4  1  0  0  0  0
  3 23  1  0  0  0  0
  4  5  1  0  0  0  0
  5  6  1  0  0  0  0
  6  7  1  0  0  0  0
  7  8  1  0  0  0  0
  8  9  1  0  0  0  0
  9 10  1  0  0  0  0
  9 13  2  0  0  0  0
 10 11  1  0  0  0  0
 10 14  1  0  0  0  0
 11 12  2  0  0  0  0
 12 13  1  0  0  0  0
 14 15  1  0  0  0  0
 15 16  1  0  0  0  0
 15 22  2  0  0  0  0
 16 17  2  0  0  0  0
 17 18  1  0  0  0  0
 18 19  1  0  0  0  0
 18 21  2  0  0  0  0
 19 20  3  0  0  0  0
 21 22  1  0  0  0  0
 23 24  2  0  0  0  0
 23 25  1  0  0  0  0
 25 26  1  0  0  0  0
 25 30  2  0  0  0  0
 26 27  2  0  0  0  0
 27 28  1  0  0  0  0
 28 29  2  0  0  0  0
 29 30  1  0  0  0  0
 30 31  1  0  0  0  0
 31 32  1  0  0  0  0
M  END
> <Acceptable>
false

> <IC50>
21

$$$$

Generated by Molecular Materials Informatics

 31 34  0  0  0  0  0  0  0  0999 V2000
    0.1492    2.8473    0.0000 O   0  0  0  0  0  0  0  0  0  0  0  0
    0.8000    1.3856    0.0000 C   0  0  0  0  0  0  0  0  0  0  0  0
    0.0000    0.0000    0.0000 N   0  0  0  0  0  0  0  0  0  0  0  0
    1.0706   -1.1890    0.0000 C   0  0  0  0  0  0  0  0  0  0  0  0
    2.5323   -0.5383    0.0000 C   0  0  0  0  0  0  0  0  0  0  0  0
    2.3650    1.0530    0.0000 C   0  0  0  0  0  0  0  0  0  0  0  0
    3.5541    2.1236    0.0000 N   0  0  0  0  0  0  0  0  0  0  0  0
    5.0758    1.6292    0.0000 C   0  0  0  0  0  0  0  0  0  0  0  0
    6.2648    2.6998    0.0000 C   0  0  0  0  0  0  0  0  0  0  0  0
    7.8298    2.3671    0.0000 N   0  0  0  0  0  0  0  0  0  0  0  0
    8.6298    3.7528    0.0000 C   0  0  0  0  0  0  0  0  0  0  0  0
    7.5592    4.9418    0.0000 N   0  0  0  0  0  0  0  0  0  0  0  0
    6.0975    4.2910    0.0000 C   0  0  0  0  0  0  0  0  0  0  0  0
    8.4806    0.9054    0.0000 C   0  0  0  0  0  0  0  0  0  0  0  0
   10.0718    0.7382    0.0000 C   0  0  0  0  0  0  0  0  0  0  0  0
   10.7226   -0.7235    0.0000 C   0  0  0  0  0  0  0  0  0  0  0  0
   12.3139   -0.8907    0.0000 C   0  0  0  0  0  0  0  0  0  0  0  0
   13.2543    0.4037    0.0000 C   0  0  0  0  0  0  0  0  0  0  0  0
   14.8455    0.2365    0.0000 C   0  0  0  0  0  0  0  0  0  0  0  0
   16.4368    0.0692    0.0000 N   0  0  0  0  0  0  0  0  0  0  0  0
   12.6035    1.8654    0.0000 C   0  0  0  0  0  0  0  0  0  0  0  0
   11.0123    2.0326    0.0000 C   0  0  0  0  0  0  0  0  0  0  0  0
   -1.5912   -0.1672    0.0000 C   0  0  0  0  0  0  0  0  0  0  0  0
   -2.5317    1.1272    0.0000 O   0  0  0  0  0  0  0  0  0  0  0  0
   -2.2420   -1.6289    0.0000 C   0  0  0  0  0  0  0  0  0  0  0  0
   -3.8332   -1.7962    0.0000 C   0  0  0  0  0  0  0  0  0  0  0  0
   -4.4840   -3.2578    0.0000 C   0  0  0  0  0  0  0  0  0  0  0  0
   -3.5436   -4.5523    0.0000 C   0  0  0  0  0  0  0  0  0  0  0  0
   -1.9523   -4.3850    0.0000 N   0  0  0  0  0  0  0  0  0  0  0  0
   -1.3016   -2.9233    0.0000 C   0  0  0  0  0  0  0  0  0  0  0  0
    0.2897   -2.7561    0.0000 O   0  0  0  0  0  0  0  0  0  0  0  0
  1  2  2  0  0  0  0
  2  3  1  0  0  0  0
  2  6  1  0  0  0  0
  3  4  1  0  0  0  0
  3 23  1  0  0  0  0
  4  5  1  0  0  0  0
  5  6  1  0  0  0  0
  6  7  1  0  0  0  0
  7  8  1  0  0  0  0
  8  9  1  0  0  0  0
  9 10  1  0  0  0  0
  9 13  2  0  0  0  0
 10 11  1  0  0  0  0
 10 14  1  0  0  0  0
 11 12  2  0  0  0  0
 12 13  1  0  0  0  0
 14 15  1  0  0  0  0
 15 16  1  0  0  0  0
 15 22  2  0  0  0  0
 16 17  2  0  0  0  0
 17 18  1  0  0  0  0
 18 19  1  0  0  0  0
 18 21  2  0  0  0  0
 19 20  3  0  0  0  0
 21 22  1  0  0  0  0
 23 24  2  0  0  0  0
 23 25  1  0  0  0  0
 25 26  1  0  0  0  0
 25 30  2  0  0  0  0
 26 27  2  0  0  0  0
 27 28  1  0  0  0  0
 28 29  2  0  0  0  0
 29 30  1  0  0  0  0
 30 31  1  0  0  0  0
M  END
> <Acceptable>
true

> <IC50>
50

$$$$

Generated by Molecular Materials Informatics

 31 34  0  0  0  0  0  0  0  0999 V2000
    0.1492    2.8473    0.0000 O   0  0  0  0  0  0  0  0  0  0  0  0
    0.8000    1.3856    0.0000 C   0  0  0  0  0  0  0  0  0  0  0  0
    0.0000    0.0000    0.0000 N   0  0  0  0  0  0  0  0  0  0  0  0
    1.0706   -1.1890    0.0000 C   0  0  0  0  0  0  0  0  0  0  0  0
    2.5323   -0.5383    0.0000 C   0  0  0  0  0  0  0  0  0  0  0  0
    2.3650    1.0530    0.0000 C   0  0  0  0  0  0  0  0  0  0  0  0
    3.5541    2.1236    0.0000 N   0  0  0  0  0  0  0  0  0  0  0  0
    5.0758    1.6292    0.0000 C   0  0  0  0  0  0  0  0  0  0  0  0
    6.2648    2.6998    0.0000 C   0  0  0  0  0  0  0  0  0  0  0  0
    7.8298    2.3671    0.0000 N   0  0  0  0  0  0  0  0  0  0  0  0
    8.6298    3.7528    0.0000 C   0  0  0  0  0  0  0  0  0  0  0  0
    7.5592    4.9418    0.0000 N   0  0  0  0  0  0  0  0  0  0  0  0
    6.0975    4.2910    0.0000 C   0  0  0  0  0  0  0  0  0  0  0  0
    8.4806    0.9054    0.0000 C   0  0  0  0  0  0  0  0  0  0  0  0
   10.0718    0.7382    0.0000 C   0  0  0  0  0  0  0  0  0  0  0  0
   10.7226   -0.7235    0.0000 C   0  0  0  0  0  0  0  0  0  0  0  0
   12.3139   -0.8907    0.0000 C   0  0  0  0  0  0  0  0  0  0  0  0
   13.2543    0.4037    0.0000 C   0  0  0  0  0  0  0  0  0  0  0  0
   14.8455    0.2365    0.0000 C   0  0  0  0  0  0  0  0  0  0  0  0
   16.4368    0.0692    0.0000 N   0  0  0  0  0  0  0  0  0  0  0  0
   12.6035    1.8654    0.0000 C   0  0  0  0  0  0  0  0  0  0  0  0
   11.0123    2.0326    0.0000 C   0  0  0  0  0  0  0  0  0  0  0  0
   -1.5912   -0.1672    0.0000 C   0  0  0  0  0  0  0  0  0  0  0  0
   -2.5317    1.1272    0.0000 O   0  0  0  0  0  0  0  0  0  0  0  0
   -2.2420   -1.6289    0.0000 C   0  0  0  0  0  0  0  0  0  0  0  0
   -3.8332   -1.7962    0.0000 C   0  0  0  0  0  0  0  0  0  0  0  0
   -4.4840   -3.2578    0.0000 C   0  0  0  0  0  0  0  0  0  0  0  0
   -3.5436   -4.5523    0.0000 C   0  0  0  0  0  0  0  0  0  0  0  0
   -1.9523   -4.3850    0.0000 N   0  0  0  0  0  0  0  0  0  0  0  0
   -1.3016   -2.9233    0.0000 C   0  0  0  0  0  0  0  0  0  0  0  0
    0.2897   -2.7561    0.0000 N   0  0  0  0  0  0  0  0  0  0  0  0
  1  2  2  0  0  0  0
  2  3  1  0  0  0  0
  2  6  1  0  0  0  0
  3  4  1  0  0  0  0
  3 23  1  0  0  0  0
  4  5  1  0  0  0  0
  5  6  1  0  0  0  0
  6  7  1  0  0  0  0
  7  8  1  0  0  0  0
  8  9  1  0  0  0  0
  9 10  1  0  0  0  0
  9 13  2  0  0  0  0
 10 11  1  0  0  0  0
 10 14  1  0  0  0  0
 11 12  2  0  0  0  0
 12 13  1  0  0  0  0
 14 15  1  0  0  0  0
 15 16  1  0  0  0  0
 15 22  2  0  0  0  0
 16 17  2  0  0  0  0
 17 18  1  0  0  0  0
 18 19  1  0  0  0  0
 18 21  2  0  0  0  0
 19 20  3  0  0  0  0
 21 22  1  0  0  0  0
 23 24  2  0  0  0  0
 23 25  1  0  0  0  0
 25 26  1  0  0  0  0
 25 30  2  0  0  0  0
 26 27  2  0  0  0  0
 27 28  1  0  0  0  0
 28 29  2  0  0  0  0
 29 30  1  0  0  0  0
 30 31  1  0  0  0  0
M  END
> <Acceptable>
true

> <IC50>
50

$$$$

Generated by Molecular Materials Informatics

 31 34  0  0  0  0  0  0  0  0999 V2000
    0.1492    2.8473    0.0000 O   0  0  0  0  0  0  0  0  0  0  0  0
    0.8000    1.3856    0.0000 C   0  0  0  0  0  0  0  0  0  0  0  0
    0.0000    0.0000    0.0000 N   0  0  0  0  0  0  0  0  0  0  0  0
    1.0706   -1.1890    0.0000 C   0  0  0  0  0  0  0  0  0  0  0  0
    2.5323   -0.5383    0.0000 C   0  0  0  0  0  0  0  0  0  0  0  0
    2.3650    1.0530    0.0000 C   0  0  0  0  0  0  0  0  0  0  0  0
    3.5541    2.1236    0.0000 N   0  0  0  0  0  0  0  0  0  0  0  0
    5.0758    1.6292    0.0000 C   0  0  0  0  0  0  0  0  0  0  0  0
    6.2648    2.6998    0.0000 C   0  0  0  0  0  0  0  0  0  0  0  0
    7.8298    2.3671    0.0000 N   0  0  0  0  0  0  0  0  0  0  0  0
    8.6298    3.7528    0.0000 C   0  0  0  0  0  0  0  0  0  0  0  0
    7.5592    4.9418    0.0000 N   0  0  0  0  0  0  0  0  0  0  0  0
    6.0975    4.2910    0.0000 C   0  0  0  0  0  0  0  0  0  0  0  0
    8.4806    0.9054    0.0000 C   0  0  0  0  0  0  0  0  0  0  0  0
   10.0718    0.7382    0.0000 C   0  0  0  0  0  0  0  0  0  0  0  0
   10.7226   -0.7235    0.0000 C   0  0  0  0  0  0  0  0  0  0  0  0
   12.3139   -0.8907    0.0000 C   0  0  0  0  0  0  0  0  0  0  0  0
   13.2543    0.4037    0.0000 C   0  0  0  0  0  0  0  0  0  0  0  0
   14.8455    0.2365    0.0000 C   0  0  0  0  0  0  0  0  0  0  0  0
   16.4368    0.0692    0.0000 N   0  0  0  0  0  0  0  0  0  0  0  0
   12.6035    1.8654    0.0000 C   0  0  0  0  0  0  0  0  0  0  0  0
   11.0123    2.0326    0.0000 C   0  0  0  0  0  0  0  0  0  0  0  0
   -1.5912   -0.1672    0.0000 C   0  0  0  0  0  0  0  0  0  0  0  0
   -2.5317    1.1272    0.0000 O   0  0  0  0  0  0  0  0  0  0  0  0
   -2.2420   -1.6289    0.0000 C   0  0  0  0  0  0  0  0  0  0  0  0
   -3.8332   -1.7962    0.0000 C   0  0  0  0  0  0  0  0  0  0  0  0
   -4.4840   -3.2578    0.0000 C   0  0  0  0  0  0  0  0  0  0  0  0
   -3.5436   -4.5523    0.0000 C   0  0  0  0  0  0  0  0  0  0  0  0
   -1.9523   -4.3850    0.0000 N   0  0  0  0  0  0  0  0  0  0  0  0
   -1.3016   -2.9233    0.0000 C   0  0  0  0  0  0  0  0  0  0  0  0
    0.2897   -2.7561    0.0000 C   0  0  0  0  0  0  0  0  0  0  0  0
  1  2  2  0  0  0  0
  2  3  1  0  0  0  0
  2  6  1  0  0  0  0
  3  4  1  0  0  0  0
  3 23  1  0  0  0  0
  4  5  1  0  0  0  0
  5  6  1  0  0  0  0
  6  7  1  0  0  0  0
  7  8  1  0  0  0  0
  8  9  1  0  0  0  0
  9 10  1  0  0  0  0
  9 13  2  0  0  0  0
 10 11  1  0  0  0  0
 10 14  1  0  0  0  0
 11 12  2  0  0  0  0
 12 13  1  0  0  0  0
 14 15  1  0  0  0  0
 15 16  1  0  0  0  0
 15 22  2  0  0  0  0
 16 17  2  0  0  0  0
 17 18  1  0  0  0  0
 18 19  1  0  0  0  0
 18 21  2  0  0  0  0
 19 20  3  0  0  0  0
 21 22  1  0  0  0  0
 23 24  2  0  0  0  0
 23 25  1  0  0  0  0
 25 26  1  0  0  0  0
 25 30  2  0  0  0  0
 26 27  2  0  0  0  0
 27 28  1  0  0  0  0
 28 29  2  0  0  0  0
 29 30  1  0  0  0  0
 30 31  1  0  0  0  0
M  END
> <Acceptable>
false

> <IC50>
10

$$$$

Generated by Molecular Materials Informatics

 29 32  0  0  0  0  0  0  0  0999 V2000
   -1.2944    2.5405    0.0000 O   0  0  0  0  0  0  0  0  0  0  0  0
    0.0000    1.6000    0.0000 C   0  0  0  0  0  0  0  0  0  0  0  0
    0.0000    0.0000    0.0000 N   0  0  0  0  0  0  0  0  0  0  0  0
    1.5217   -0.4944    0.0000 C   0  0  0  0  0  0  0  0  0  0  0  0
    2.4621    0.8000    0.0000 C   0  0  0  0  0  0  0  0  0  0  0  0
    1.5217    2.0944    0.0000 C   0  0  0  0  0  0  0  0  0  0  0  0
    2.0161    3.6161    0.0000 N   0  0  0  0  0  0  0  0  0  0  0  0
    3.5812    3.9488    0.0000 C   0  0  0  0  0  0  0  0  0  0  0  0
    4.0756    5.4705    0.0000 C   0  0  0  0  0  0  0  0  0  0  0  0
    5.6406    5.8031    0.0000 C   0  0  0  0  0  0  0  0  0  0  0  0
    6.8296    4.7325    0.0000 N   0  0  0  0  0  0  0  0  0  0  0  0
    8.2153    5.5325    0.0000 C   0  0  0  0  0  0  0  0  0  0  0  0
    7.8826    7.0976    0.0000 N   0  0  0  0  0  0  0  0  0  0  0  0
    6.2914    7.2648    0.0000 C   0  0  0  0  0  0  0  0  0  0  0  0
    6.6624    3.1413    0.0000 C   0  0  0  0  0  0  0  0  0  0  0  0
    7.9568    2.2008    0.0000 C   0  0  0  0  0  0  0  0  0  0  0  0
    7.7896    0.6096    0.0000 C   0  0  0  0  0  0  0  0  0  0  0  0
    9.0840   -0.3309    0.0000 C   0  0  0  0  0  0  0  0  0  0  0  0
   10.5457    0.3199    0.0000 C   0  0  0  0  0  0  0  0  0  0  0  0
   11.8401   -0.6205    0.0000 C   0  0  0  0  0  0  0  0  0  0  0  0
   13.1345   -1.5610    0.0000 N   0  0  0  0  0  0  0  0  0  0  0  0
   10.7129    1.9112    0.0000 C   0  0  0  0  0  0  0  0  0  0  0  0
    9.4185    2.8516    0.0000 C   0  0  0  0  0  0  0  0  0  0  0  0
   -1.2944   -0.9405    0.0000 C   0  0  0  0  0  0  0  0  0  0  0  0
   -2.7561   -0.2897    0.0000 C   0  0  0  0  0  0  0  0  0  0  0  0
   -4.0505   -1.2301    0.0000 C   0  0  0  0  0  0  0  0  0  0  0  0
   -3.8833   -2.8214    0.0000 C   0  0  0  0  0  0  0  0  0  0  0  0
   -2.4216   -3.4721    0.0000 C   0  0  0  0  0  0  0  0  0  0  0  0
   -1.1272   -2.5317    0.0000 C   0  0  0  0  0  0  0  0  0  0  0  0
  1  2  2  0  0  0  0
  2  3  1  0  0  0  0
  2  6  1  0  0  0  0
  3  4  1  0  0  0  0
  3 24  1  0  0  0  0
  4  5  1  0  0  0  0
  5  6  1  0  0  0  0
  6  7  1  0  0  0  0
  7  8  1  0  0  0  0
  8  9  1  0  0  0  0
  9 10  1  0  0  0  0
 10 11  1  0  0  0  0
 10 14  2  0  0  0  0
 11 12  1  0  0  0  0
 11 15  1  0  0  0  0
 12 13  2  0  0  0  0
 13 14  1  0  0  0  0
 15 16  1  0  0  0  0
 16 17  1  0  0  0  0
 16 23  2  0  0  0  0
 17 18  2  0  0  0  0
 18 19  1  0  0  0  0
 19 20  1  0  0  0  0
 19 22  2  0  0  0  0
 20 21  3  0  0  0  0
 22 23  1  0  0  0  0
 24 25  1  0  0  0  0
 24 29  2  0  0  0  0
 25 26  2  0  0  0  0
 26 27  1  0  0  0  0
 27 28  2  0  0  0  0
 28 29  1  0  0  0  0
M  END
> <Acceptable>
false

> <IC50>
0.15

$$$$

Generated by Molecular Materials Informatics

 36 40  0  0  0  0  0  0  0  0999 V2000
    2.2158    1.7943    0.0000 O   0  0  0  0  0  0  0  0  0  0  0  0
    1.5650    0.3327    0.0000 C   0  0  0  0  0  0  0  0  0  0  0  0
    2.3650   -1.0530    0.0000 N   0  0  0  0  0  0  0  0  0  0  0  0
    1.2944   -2.2420    0.0000 C   0  0  0  0  0  0  0  0  0  0  0  0
   -0.1672   -1.5912    0.0000 C   0  0  0  0  0  0  0  0  0  0  0  0
    0.0000    0.0000    0.0000 C   0  0  0  0  0  0  0  0  0  0  0  0
   -1.1890    1.0706    0.0000 N   0  0  0  0  0  0  0  0  0  0  0  0
   -0.8564    2.6356    0.0000 C   0  0  0  0  0  0  0  0  0  0  0  0
   -2.0454    3.7063    0.0000 C   0  0  0  0  0  0  0  0  0  0  0  0
   -3.5671    3.2118    0.0000 C   0  0  0  0  0  0  0  0  0  0  0  0
   -4.7561    4.2824    0.0000 N   0  0  0  0  0  0  0  0  0  0  0  0
   -4.4235    5.8475    0.0000 C   0  0  0  0  0  0  0  0  0  0  0  0
   -2.9018    6.3419    0.0000 C   0  0  0  0  0  0  0  0  0  0  0  0
   -1.7127    5.2713    0.0000 C   0  0  0  0  0  0  0  0  0  0  0  0
   -2.7107    0.5762    0.0000 C   0  0  0  0  0  0  0  0  0  0  0  0
   -3.3101   -0.9073    0.0000 C   0  0  0  0  0  0  0  0  0  0  0  0
   -4.8626   -1.2944    0.0000 N   0  0  0  0  0  0  0  0  0  0  0  0
   -4.9742   -2.8905    0.0000 C   0  0  0  0  0  0  0  0  0  0  0  0
   -3.4907   -3.4899    0.0000 N   0  0  0  0  0  0  0  0  0  0  0  0
   -2.4622   -2.2642    0.0000 C   0  0  0  0  0  0  0  0  0  0  0  0
   -6.0882   -0.2659    0.0000 C   0  0  0  0  0  0  0  0  0  0  0  0
   -7.5917   -0.8132    0.0000 C   0  0  0  0  0  0  0  0  0  0  0  0
   -8.8174    0.2153    0.0000 C   0  0  0  0  0  0  0  0  0  0  0  0
  -10.3209   -0.3319    0.0000 C   0  0  0  0  0  0  0  0  0  0  0  0
  -10.5988   -1.9076    0.0000 C   0  0  0  0  0  0  0  0  0  0  0  0
  -12.1023   -2.4549    0.0000 C   0  0  0  0  0  0  0  0  0  0  0  0
  -13.6058   -3.0021    0.0000 N   0  0  0  0  0  0  0  0  0  0  0  0
   -9.3731   -2.9361    0.0000 C   0  0  0  0  0  0  0  0  0  0  0  0
   -7.8696   -2.3888    0.0000 C   0  0  0  0  0  0  0  0  0  0  0  0
    3.9563   -1.2202    0.0000 C   0  0  0  0  0  0  0  0  0  0  0  0
    4.6070   -2.6819    0.0000 C   0  0  0  0  0  0  0  0  0  0  0  0
    6.1983   -2.8491    0.0000 C   0  0  0  0  0  0  0  0  0  0  0  0
    6.8491   -4.3108    0.0000 C   0  0  0  0  0  0  0  0  0  0  0  0
    5.9086   -5.6052    0.0000 C   0  0  0  0  0  0  0  0  0  0  0  0
    4.3174   -5.4380    0.0000 C   0  0  0  0  0  0  0  0  0  0  0  0
    3.6666   -3.9763    0.0000 C   0  0  0  0  0  0  0  0  0  0  0  0
  1  2  2  0  0  0  0
  2  3  1  0  0  0  0
  2  6  1  0  0  0  0
  3  4  1  0  0  0  0
  3 30  1  0  0  0  0
  4  5  1  0  0  0  0
  5  6  1  0  0  0  0
  6  7  1  0  0  0  0
  7  8  1  0  0  0  0
  7 15  1  0  0  0  0
  8  9  1  0  0  0  0
  9 10  1  0  0  0  0
  9 14  2  0  0  0  0
 10 11  2  0  0  0  0
 11 12  1  0  0  0  0
 12 13  2  0  0  0  0
 13 14  1  0  0  0  0
 15 16  1  0  0  0  0
 16 17  1  0  0  0  0
 16 20  2  0  0  0  0
 17 18  1  0  0  0  0
 17 21  1  0  0  0  0
 18 19  2  0  0  0  0
 19 20  1  0  0  0  0
 21 22  1  0  0  0  0
 22 23  1  0  0  0  0
 22 29  2  0  0  0  0
 23 24  2  0  0  0  0
 24 25  1  0  0  0  0
 25 26  1  0  0  0  0
 25 28  2  0  0  0  0
 26 27  3  0  0  0  0
 28 29  1  0  0  0  0
 30 31  1  0  0  0  0
 31 32  1  0  0  0  0
 31 36  2  0  0  0  0
 32 33  2  0  0  0  0
 33 34  1  0  0  0  0
 34 35  2  0  0  0  0
 35 36  1  0  0  0  0
M  END
> <Acceptable>
false

> <IC50>
0.87

$$$$

Generated by Molecular Materials Informatics

 33 36  0  0  0  0  0  0  0  0999 V2000
    2.2158    1.7943    0.0000 O   0  0  0  0  0  0  0  0  0  0  0  0
    1.5650    0.3327    0.0000 C   0  0  0  0  0  0  0  0  0  0  0  0
    2.3650   -1.0530    0.0000 N   0  0  0  0  0  0  0  0  0  0  0  0
    1.2944   -2.2420    0.0000 C   0  0  0  0  0  0  0  0  0  0  0  0
   -0.1672   -1.5912    0.0000 C   0  0  0  0  0  0  0  0  0  0  0  0
    0.0000    0.0000    0.0000 C   0  0  0  0  0  0  0  0  0  0  0  0
   -1.1890    1.0706    0.0000 N   0  0  0  0  0  0  0  0  0  0  0  0
   -0.8564    2.6356    0.0000 C   0  0  0  0  0  0  0  0  0  0  0  0
   -2.0454    3.7063    0.0000 C   0  0  0  0  0  0  0  0  0  0  0  0
   -1.7127    5.2713    0.0000 C   0  0  0  0  0  0  0  0  0  0  0  0
   -0.1911    5.7657    0.0000 C   0  0  0  0  0  0  0  0  0  0  0  0
   -2.7107    0.5762    0.0000 C   0  0  0  0  0  0  0  0  0  0  0  0
   -3.8998    1.6468    0.0000 C   0  0  0  0  0  0  0  0  0  0  0  0
   -5.4648    1.3141    0.0000 N   0  0  0  0  0  0  0  0  0  0  0  0
   -6.2648    2.6998    0.0000 C   0  0  0  0  0  0  0  0  0  0  0  0
   -5.1942    3.8888    0.0000 N   0  0  0  0  0  0  0  0  0  0  0  0
   -3.7325    3.2380    0.0000 C   0  0  0  0  0  0  0  0  0  0  0  0
   -6.1156   -0.1475    0.0000 C   0  0  0  0  0  0  0  0  0  0  0  0
   -7.7068   -0.3148    0.0000 C   0  0  0  0  0  0  0  0  0  0  0  0
   -8.3576   -1.7765    0.0000 C   0  0  0  0  0  0  0  0  0  0  0  0
   -9.9488   -1.9437    0.0000 C   0  0  0  0  0  0  0  0  0  0  0  0
  -10.8893   -0.6493    0.0000 C   0  0  0  0  0  0  0  0  0  0  0  0
  -12.4805   -0.8165    0.0000 C   0  0  0  0  0  0  0  0  0  0  0  0
  -14.0717   -0.9838    0.0000 N   0  0  0  0  0  0  0  0  0  0  0  0
  -10.2385    0.8124    0.0000 C   0  0  0  0  0  0  0  0  0  0  0  0
   -8.6473    0.9796    0.0000 C   0  0  0  0  0  0  0  0  0  0  0  0
    3.9563   -1.2202    0.0000 C   0  0  0  0  0  0  0  0  0  0  0  0
    4.6070   -2.6819    0.0000 C   0  0  0  0  0  0  0  0  0  0  0  0
    6.1983   -2.8491    0.0000 C   0  0  0  0  0  0  0  0  0  0  0  0
    6.8491   -4.3108    0.0000 C   0  0  0  0  0  0  0  0  0  0  0  0
    5.9086   -5.6052    0.0000 C   0  0  0  0  0  0  0  0  0  0  0  0
    4.3174   -5.4380    0.0000 C   0  0  0  0  0  0  0  0  0  0  0  0
    3.6666   -3.9763    0.0000 C   0  0  0  0  0  0  0  0  0  0  0  0
  1  2  2  0  0  0  0
  2  3  1  0  0  0  0
  2  6  1  0  0  0  0
  3  4  1  0  0  0  0
  3 27  1  0  0  0  0
  4  5  1  0  0  0  0
  5  6  1  0  0  0  0
  6  7  1  0  0  0  0
  7  8  1  0  0  0  0
  7 12  1  0  0  0  0
  8  9  1  0  0  0  0
  9 10  1  0  0  0  0
 10 11  1  0  0  0  0
 12 13  1  0  0  0  0
 13 14  1  0  0  0  0
 13 17  2  0  0  0  0
 14 15  1  0  0  0  0
 14 18  1  0  0  0  0
 15 16  2  0  0  0  0
 16 17  1  0  0  0  0
 18 19  1  0  0  0  0
 19 20  1  0  0  0  0
 19 26  2  0  0  0  0
 20 21  2  0  0  0  0
 21 22  1  0  0  0  0
 22 23  1  0  0  0  0
 22 25  2  0  0  0  0
 23 24  3  0  0  0  0
 25 26  1  0  0  0  0
 27 28  1  0  0  0  0
 28 29  1  0  0  0  0
 28 33  2  0  0  0  0
 29 30  2  0  0  0  0
 30 31  1  0  0  0  0
 31 32  2  0  0  0  0
 32 33  1  0  0  0  0
M  END
> <Acceptable>
false

> <IC50>
0.19

$$$$

Generated by Molecular Materials Informatics

 21 24  0  0  0  0  0  0  0  0999 V2000
    0.0000    2.5889    0.0000 N   0  0  0  0  0  0  0  0  0  0  0  0
   -1.5217    2.0944    0.0000 C   0  0  0  0  0  0  0  0  0  0  0  0
   -2.9073    2.8944    0.0000 C   0  0  0  0  0  0  0  0  0  0  0  0
   -4.2930    2.0944    0.0000 C   0  0  0  0  0  0  0  0  0  0  0  0
   -4.2930    0.4944    0.0000 C   0  0  0  0  0  0  0  0  0  0  0  0
   -2.9073   -0.3056    0.0000 C   0  0  0  0  0  0  0  0  0  0  0  0
   -1.5217    0.4944    0.0000 C   0  0  0  0  0  0  0  0  0  0  0  0
    0.0000    0.0000    0.0000 C   0  0  0  0  0  0  0  0  0  0  0  0
    0.9405    1.2944    0.0000 C   0  0  0  0  0  0  0  0  0  0  0  0
    2.5405    1.2944    0.0000 C   0  0  0  0  0  0  0  0  0  0  0  0
    3.3405   -0.0912    0.0000 C   0  0  0  0  0  0  0  0  0  0  0  0
    4.9405   -0.0912    0.0000 C   0  0  0  0  0  0  0  0  0  0  0  0
    5.7405    1.2944    0.0000 C   0  0  0  0  0  0  0  0  0  0  0  0
    4.9405    2.6801    0.0000 C   0  0  0  0  0  0  0  0  0  0  0  0
    3.3405    2.6801    0.0000 C   0  0  0  0  0  0  0  0  0  0  0  0
    0.4944   -1.5217    0.0000 C   0  0  0  0  0  0  0  0  0  0  0  0
   -0.5762   -2.7107    0.0000 C   0  0  0  0  0  0  0  0  0  0  0  0
   -0.0818   -4.2324    0.0000 N   0  0  0  0  0  0  0  0  0  0  0  0
    1.4833   -4.5651    0.0000 C   0  0  0  0  0  0  0  0  0  0  0  0
    2.5539   -3.3760    0.0000 C   0  0  0  0  0  0  0  0  0  0  0  0
    2.0595   -1.8543    0.0000 C   0  0  0  0  0  0  0  0  0  0  0  0
  1  2  1  0  0  0  0
  1  9  1  0  0  0  0
  2  3  1  0  0  0  0
  2  7  2  0  0  0  0
  3  4  2  0  0  0  0
  4  5  1  0  0  0  0
  5  6  2  0  0  0  0
  6  7  1  0  0  0  0
  7  8  1  0  0  0  0
  8  9  2  0  0  0  0
  8 16  1  0  0  0  0
  9 10  1  0  0  0  0
 10 11  1  0  0  0  0
 10 15  2  0  0  0  0
 11 12  2  0  0  0  0
 12 13  1  0  0  0  0
 13 14  2  0  0  0  0
 14 15  1  0  0  0  0
 16 17  1  0  0  0  0
 16 21  1  0  0  0  0
 17 18  1  0  0  0  0
 18 19  1  0  0  0  0
 19 20  1  0  0  0  0
 20 21  1  0  0  0  0
M  END
> <Acceptable>
false

> <IC50>
4.9

$$$$

Generated by Molecular Materials Informatics

 21 24  0  0  0  0  0  0  0  0999 V2000
    0.0000    2.5889    0.0000 N   0  0  0  0  0  0  0  0  0  0  0  0
   -1.5217    2.0944    0.0000 C   0  0  0  0  0  0  0  0  0  0  0  0
   -2.9073    2.8944    0.0000 C   0  0  0  0  0  0  0  0  0  0  0  0
   -4.2930    2.0944    0.0000 C   0  0  0  0  0  0  0  0  0  0  0  0
   -4.2930    0.4944    0.0000 C   0  0  0  0  0  0  0  0  0  0  0  0
   -2.9073   -0.3056    0.0000 C   0  0  0  0  0  0  0  0  0  0  0  0
   -1.5217    0.4944    0.0000 C   0  0  0  0  0  0  0  0  0  0  0  0
    0.0000    0.0000    0.0000 C   0  0  0  0  0  0  0  0  0  0  0  0
    0.9405    1.2944    0.0000 C   0  0  0  0  0  0  0  0  0  0  0  0
    2.5405    1.2944    0.0000 C   0  0  0  0  0  0  0  0  0  0  0  0
    3.3405   -0.0912    0.0000 C   0  0  0  0  0  0  0  0  0  0  0  0
    4.9405   -0.0912    0.0000 C   0  0  0  0  0  0  0  0  0  0  0  0
    5.7405    1.2944    0.0000 C   0  0  0  0  0  0  0  0  0  0  0  0
    4.9405    2.6801    0.0000 C   0  0  0  0  0  0  0  0  0  0  0  0
    3.3405    2.6801    0.0000 C   0  0  0  0  0  0  0  0  0  0  0  0
    0.4944   -1.5217    0.0000 C   0  0  0  0  0  0  0  0  0  0  0  0
   -0.5762   -2.7107    0.0000 C   0  0  0  0  0  0  0  0  0  0  0  0
   -0.0818   -4.2324    0.0000 C   0  0  0  0  0  0  0  0  0  0  0  0
    1.4833   -4.5651    0.0000 N   0  0  0  0  0  0  0  0  0  0  0  0
    2.5539   -3.3760    0.0000 C   0  0  0  0  0  0  0  0  0  0  0  0
    2.0595   -1.8543    0.0000 C   0  0  0  0  0  0  0  0  0  0  0  0
  1  2  1  0  0  0  0
  1  9  1  0  0  0  0
  2  3  1  0  0  0  0
  2  7  2  0  0  0  0
  3  4  2  0  0  0  0
  4  5  1  0  0  0  0
  5  6  2  0  0  0  0
  6  7  1  0  0  0  0
  7  8  1  0  0  0  0
  8  9  2  0  0  0  0
  8 16  1  0  0  0  0
  9 10  1  0  0  0  0
 10 11  1  0  0  0  0
 10 15  2  0  0  0  0
 11 12  2  0  0  0  0
 12 13  1  0  0  0  0
 13 14  2  0  0  0  0
 14 15  1  0  0  0  0
 16 17  1  0  0  0  0
 16 21  1  0  0  0  0
 17 18  1  0  0  0  0
 18 19  1  0  0  0  0
 19 20  1  0  0  0  0
 20 21  1  0  0  0  0
M  END
> <Acceptable>
false

> <IC50>
5.7

$$$$

Generated by Molecular Materials Informatics

 23 26  0  0  0  0  0  0  0  0999 V2000
   -4.7650    2.4386    0.0000 F   0  0  0  0  0  0  0  0  0  0  0  0
   -3.9650    1.0530    0.0000 C   0  0  0  0  0  0  0  0  0  0  0  0
   -4.7650   -0.3327    0.0000 C   0  0  0  0  0  0  0  0  0  0  0  0
   -3.9650   -1.7183    0.0000 C   0  0  0  0  0  0  0  0  0  0  0  0
   -2.3650   -1.7183    0.0000 C   0  0  0  0  0  0  0  0  0  0  0  0
   -1.5650   -0.3327    0.0000 C   0  0  0  0  0  0  0  0  0  0  0  0
   -2.3650    1.0530    0.0000 C   0  0  0  0  0  0  0  0  0  0  0  0
   -1.2944    2.2420    0.0000 N   0  0  0  0  0  0  0  0  0  0  0  0
    0.1672    1.5912    0.0000 C   0  0  0  0  0  0  0  0  0  0  0  0
    1.5529    2.3912    0.0000 C   0  0  0  0  0  0  0  0  0  0  0  0
    2.9385    1.5912    0.0000 C   0  0  0  0  0  0  0  0  0  0  0  0
    4.3242    2.3912    0.0000 C   0  0  0  0  0  0  0  0  0  0  0  0
    4.3242    3.9912    0.0000 C   0  0  0  0  0  0  0  0  0  0  0  0
    2.9385    4.7912    0.0000 C   0  0  0  0  0  0  0  0  0  0  0  0
    1.5529    3.9912    0.0000 C   0  0  0  0  0  0  0  0  0  0  0  0
    0.0000    0.0000    0.0000 C   0  0  0  0  0  0  0  0  0  0  0  0
    1.1890   -1.0706    0.0000 C   0  0  0  0  0  0  0  0  0  0  0  0
    2.7107   -0.5762    0.0000 C   0  0  0  0  0  0  0  0  0  0  0  0
    3.8998   -1.6468    0.0000 N   0  0  0  0  0  0  0  0  0  0  0  0
    3.5671   -3.2118    0.0000 C   0  0  0  0  0  0  0  0  0  0  0  0
    2.0454   -3.7063    0.0000 C   0  0  0  0  0  0  0  0  0  0  0  0
    0.8564   -2.6356    0.0000 C   0  0  0  0  0  0  0  0  0  0  0  0
   -0.6653   -3.1301    0.0000 F   0  0  0  0  0  0  0  0  0  0  0  0
  1  2  1  0  0  0  0
  2  3  1  0  0  0  0
  2  7  2  0  0  0  0
  3  4  2  0  0  0  0
  4  5  1  0  0  0  0
  5  6  2  0  0  0  0
  6  7  1  0  0  0  0
  6 16  1  0  0  0  0
  7  8  1  0  0  0  0
  8  9  1  0  0  0  0
  9 10  1  0  0  0  0
  9 16  2  0  0  0  0
 10 11  1  0  0  0  0
 10 15  2  0  0  0  0
 11 12  2  0  0  0  0
 12 13  1  0  0  0  0
 13 14  2  0  0  0  0
 14 15  1  0  0  0  0
 16 17  1  0  0  0  0
 17 18  1  0  0  0  0
 17 22  1  0  0  0  0
 18 19  1  0  0  0  0
 19 20  1  0  0  0  0
 20 21  1  0  0  0  0
 21 22  1  0  0  0  0
 22 23  1  0  0  0  0
M  END
> <Acceptable>
false

> <IC50>
3

$$$$

Generated by Molecular Materials Informatics

 23 26  0  0  0  0  0  0  0  0999 V2000
   -5.6786    2.8944    0.0000 F   0  0  0  0  0  0  0  0  0  0  0  0
   -4.2930    2.0944    0.0000 C   0  0  0  0  0  0  0  0  0  0  0  0
   -4.2930    0.4944    0.0000 C   0  0  0  0  0  0  0  0  0  0  0  0
   -2.9073   -0.3056    0.0000 C   0  0  0  0  0  0  0  0  0  0  0  0
   -1.5217    0.4944    0.0000 C   0  0  0  0  0  0  0  0  0  0  0  0
   -1.5217    2.0944    0.0000 C   0  0  0  0  0  0  0  0  0  0  0  0
    0.0000    2.5889    0.0000 N   0  0  0  0  0  0  0  0  0  0  0  0
    0.9405    1.2944    0.0000 C   0  0  0  0  0  0  0  0  0  0  0  0
    2.5405    1.2944    0.0000 C   0  0  0  0  0  0  0  0  0  0  0  0
    3.3405   -0.0912    0.0000 C   0  0  0  0  0  0  0  0  0  0  0  0
    4.9405   -0.0912    0.0000 C   0  0  0  0  0  0  0  0  0  0  0  0
    5.7405    1.2944    0.0000 C   0  0  0  0  0  0  0  0  0  0  0  0
    4.9405    2.6801    0.0000 C   0  0  0  0  0  0  0  0  0  0  0  0
    3.3405    2.6801    0.0000 C   0  0  0  0  0  0  0  0  0  0  0  0
    0.0000    0.0000    0.0000 C   0  0  0  0  0  0  0  0  0  0  0  0
    0.4944   -1.5217    0.0000 C   0  0  0  0  0  0  0  0  0  0  0  0
    2.0595   -1.8544    0.0000 C   0  0  0  0  0  0  0  0  0  0  0  0
    2.5539   -3.3760    0.0000 N   0  0  0  0  0  0  0  0  0  0  0  0
    1.4833   -4.5651    0.0000 C   0  0  0  0  0  0  0  0  0  0  0  0
   -0.0818   -4.2324    0.0000 C   0  0  0  0  0  0  0  0  0  0  0  0
   -0.5762   -2.7107    0.0000 C   0  0  0  0  0  0  0  0  0  0  0  0
   -2.1412   -2.3781    0.0000 F   0  0  0  0  0  0  0  0  0  0  0  0
   -2.9073    2.8944    0.0000 C   0  0  0  0  0  0  0  0  0  0  0  0
  1  2  1  0  0  0  0
  2  3  1  0  0  0  0
  2 23  2  0  0  0  0
  3  4  2  0  0  0  0
  4  5  1  0  0  0  0
  5  6  2  0  0  0  0
  5 15  1  0  0  0  0
  6  7  1  0  0  0  0
  6 23  1  0  0  0  0
  7  8  1  0  0  0  0
  8  9  1  0  0  0  0
  8 15  2  0  0  0  0
  9 10  1  0  0  0  0
  9 14  2  0  0  0  0
 10 11  2  0  0  0  0
 11 12  1  0  0  0  0
 12 13  2  0  0  0  0
 13 14  1  0  0  0  0
 15 16  1  0  0  0  0
 16 17  1  0  0  0  0
 16 21  1  0  0  0  0
 17 18  1  0  0  0  0
 18 19  1  0  0  0  0
 19 20  1  0  0  0  0
 20 21  1  0  0  0  0
 21 22  1  0  0  0  0
M  END
> <Acceptable>
false

> <IC50>
4

$$$$

Generated by Molecular Materials Informatics

 27 31  0  0  0  0  0  0  0  0999 V2000
   -5.6786    2.8944    0.0000 F   0  0  0  0  0  0  0  0  0  0  0  0
   -4.2930    2.0944    0.0000 C   0  0  0  0  0  0  0  0  0  0  0  0
   -4.2930    0.4944    0.0000 C   0  0  0  0  0  0  0  0  0  0  0  0
   -2.9073   -0.3056    0.0000 C   0  0  0  0  0  0  0  0  0  0  0  0
   -1.5217    0.4944    0.0000 C   0  0  0  0  0  0  0  0  0  0  0  0
   -1.5217    2.0944    0.0000 C   0  0  0  0  0  0  0  0  0  0  0  0
    0.0000    2.5889    0.0000 N   0  0  0  0  0  0  0  0  0  0  0  0
    0.9405    1.2944    0.0000 C   0  0  0  0  0  0  0  0  0  0  0  0
    2.5405    1.2944    0.0000 C   0  0  0  0  0  0  0  0  0  0  0  0
    3.3405   -0.0912    0.0000 C   0  0  0  0  0  0  0  0  0  0  0  0
    4.9405   -0.0912    0.0000 C   0  0  0  0  0  0  0  0  0  0  0  0
    5.7405    1.2944    0.0000 C   0  0  0  0  0  0  0  0  0  0  0  0
    4.9405    2.6801    0.0000 C   0  0  0  0  0  0  0  0  0  0  0  0
    5.7405    4.0657    0.0000 C   0  0  0  0  0  0  0  0  0  0  0  0
    4.9405    5.4513    0.0000 C   0  0  0  0  0  0  0  0  0  0  0  0
    3.3405    5.4513    0.0000 C   0  0  0  0  0  0  0  0  0  0  0  0
    2.5405    4.0657    0.0000 C   0  0  0  0  0  0  0  0  0  0  0  0
    3.3405    2.6801    0.0000 C   0  0  0  0  0  0  0  0  0  0  0  0
    0.0000    0.0000    0.0000 C   0  0  0  0  0  0  0  0  0  0  0  0
    0.4944   -1.5217    0.0000 C   0  0  0  0  0  0  0  0  0  0  0  0
    2.0595   -1.8544    0.0000 C   0  0  0  0  0  0  0  0  0  0  0  0
    2.5539   -3.3760    0.0000 N   0  0  0  0  0  0  0  0  0  0  0  0
    1.4833   -4.5651    0.0000 C   0  0  0  0  0  0  0  0  0  0  0  0
   -0.0818   -4.2324    0.0000 C   0  0  0  0  0  0  0  0  0  0  0  0
   -0.5762   -2.7107    0.0000 C   0  0  0  0  0  0  0  0  0  0  0  0
   -2.1412   -2.3781    0.0000 F   0  0  0  0  0  0  0  0  0  0  0  0
   -2.9073    2.8944    0.0000 C   0  0  0  0  0  0  0  0  0  0  0  0
  1  2  1  0  0  0  0
  2  3  1  0  0  0  0
  2 27  2  0  0  0  0
  3  4  2  0  0  0  0
  4  5  1  0  0  0  0
  5  6  2  0  0  0  0
  5 19  1  0  0  0  0
  6  7  1  0  0  0  0
  6 27  1  0  0  0  0
  7  8  1  0  0  0  0
  8  9  1  0  0  0  0
  8 19  2  0  0  0  0
  9 10  1  0  0  0  0
  9 18  2  0  0  0  0
 10 11  2  0  0  0  0
 11 12  1  0  0  0  0
 12 13  2  0  0  0  0
 13 14  1  0  0  0  0
 13 18  1  0  0  0  0
 14 15  2  0  0  0  0
 15 16  1  0  0  0  0
 16 17  2  0  0  0  0
 17 18  1  0  0  0  0
 19 20  1  0  0  0  0
 20 21  1  0  0  0  0
 20 25  1  0  0  0  0
 21 22  1  0  0  0  0
 22 23  1  0  0  0  0
 23 24  1  0  0  0  0
 24 25  1  0  0  0  0
 25 26  1  0  0  0  0
M  END
> <Acceptable>
false

> <IC50>
0.11

$$$$

Generated by Molecular Materials Informatics

 27 31  0  0  0  0  0  0  0  0999 V2000
   -5.6786    2.8944    0.0000 F   0  0  0  0  0  0  0  0  0  0  0  0
   -4.2930    2.0944    0.0000 C   0  0  0  0  0  0  0  0  0  0  0  0
   -4.2930    0.4944    0.0000 C   0  0  0  0  0  0  0  0  0  0  0  0
   -2.9073   -0.3056    0.0000 C   0  0  0  0  0  0  0  0  0  0  0  0
   -1.5217    0.4944    0.0000 C   0  0  0  0  0  0  0  0  0  0  0  0
   -1.5217    2.0944    0.0000 C   0  0  0  0  0  0  0  0  0  0  0  0
    0.0000    2.5889    0.0000 N   0  0  0  0  0  0  0  0  0  0  0  0
    0.9405    1.2944    0.0000 C   0  0  0  0  0  0  0  0  0  0  0  0
    2.5405    1.2944    0.0000 C   0  0  0  0  0  0  0  0  0  0  0  0
    3.3405   -0.0912    0.0000 C   0  0  0  0  0  0  0  0  0  0  0  0
    4.9405   -0.0912    0.0000 C   0  0  0  0  0  0  0  0  0  0  0  0
    5.7405    1.2944    0.0000 C   0  0  0  0  0  0  0  0  0  0  0  0
    7.3405    1.2944    0.0000 C   0  0  0  0  0  0  0  0  0  0  0  0
    8.1405    2.6801    0.0000 C   0  0  0  0  0  0  0  0  0  0  0  0
    7.3405    4.0657    0.0000 C   0  0  0  0  0  0  0  0  0  0  0  0
    5.7405    4.0657    0.0000 C   0  0  0  0  0  0  0  0  0  0  0  0
    4.9405    2.6801    0.0000 C   0  0  0  0  0  0  0  0  0  0  0  0
    3.3405    2.6801    0.0000 C   0  0  0  0  0  0  0  0  0  0  0  0
    0.0000    0.0000    0.0000 C   0  0  0  0  0  0  0  0  0  0  0  0
    0.4944   -1.5217    0.0000 C   0  0  0  0  0  0  0  0  0  0  0  0
    2.0595   -1.8544    0.0000 C   0  0  0  0  0  0  0  0  0  0  0  0
    2.5539   -3.3760    0.0000 N   0  0  0  0  0  0  0  0  0  0  0  0
    1.4833   -4.5651    0.0000 C   0  0  0  0  0  0  0  0  0  0  0  0
   -0.0818   -4.2324    0.0000 C   0  0  0  0  0  0  0  0  0  0  0  0
   -0.5762   -2.7107    0.0000 C   0  0  0  0  0  0  0  0  0  0  0  0
   -2.1412   -2.3781    0.0000 F   0  0  0  0  0  0  0  0  0  0  0  0
   -2.9073    2.8944    0.0000 C   0  0  0  0  0  0  0  0  0  0  0  0
  1  2  1  0  0  0  0
  2  3  1  0  0  0  0
  2 27  2  0  0  0  0
  3  4  2  0  0  0  0
  4  5  1  0  0  0  0
  5  6  2  0  0  0  0
  5 19  1  0  0  0  0
  6  7  1  0  0  0  0
  6 27  1  0  0  0  0
  7  8  1  0  0  0  0
  8  9  1  0  0  0  0
  8 19  2  0  0  0  0
  9 10  1  0  0  0  0
  9 18  2  0  0  0  0
 10 11  2  0  0  0  0
 11 12  1  0  0  0  0
 12 13  1  0  0  0  0
 12 17  2  0  0  0  0
 13 14  2  0  0  0  0
 14 15  1  0  0  0  0
 15 16  2  0  0  0  0
 16 17  1  0  0  0  0
 17 18  1  0  0  0  0
 19 20  1  0  0  0  0
 20 21  1  0  0  0  0
 20 25  1  0  0  0  0
 21 22  1  0  0  0  0
 22 23  1  0  0  0  0
 23 24  1  0  0  0  0
 24 25  1  0  0  0  0
 25 26  1  0  0  0  0
M  END
> <Acceptable>
false

> <IC50>
0.5

$$$$

Generated by Molecular Materials Informatics

 21 23  0  0  0  0  0  0  0  0999 V2000
   -5.6786    2.8944    0.0000 F   0  0  0  0  0  0  0  0  0  0  0  0
   -4.2930    2.0944    0.0000 C   0  0  0  0  0  0  0  0  0  0  0  0
   -4.2930    0.4944    0.0000 C   0  0  0  0  0  0  0  0  0  0  0  0
   -2.9073   -0.3056    0.0000 C   0  0  0  0  0  0  0  0  0  0  0  0
   -1.5217    0.4944    0.0000 C   0  0  0  0  0  0  0  0  0  0  0  0
   -1.5217    2.0944    0.0000 C   0  0  0  0  0  0  0  0  0  0  0  0
    0.0000    2.5889    0.0000 N   0  0  0  0  0  0  0  0  0  0  0  0
    0.9405    1.2944    0.0000 C   0  0  0  0  0  0  0  0  0  0  0  0
    0.0000    0.0000    0.0000 C   0  0  0  0  0  0  0  0  0  0  0  0
    0.4944   -1.5217    0.0000 C   0  0  0  0  0  0  0  0  0  0  0  0
    2.0595   -1.8544    0.0000 C   0  0  0  0  0  0  0  0  0  0  0  0
    2.5539   -3.3760    0.0000 N   0  0  0  0  0  0  0  0  0  0  0  0
    1.4833   -4.5651    0.0000 C   0  0  0  0  0  0  0  0  0  0  0  0
   -0.0818   -4.2324    0.0000 C   0  0  0  0  0  0  0  0  0  0  0  0
   -0.5762   -2.7107    0.0000 C   0  0  0  0  0  0  0  0  0  0  0  0
   -2.1412   -2.3781    0.0000 F   0  0  0  0  0  0  0  0  0  0  0  0
    2.5405    1.2944    0.0000 C   0  0  0  0  0  0  0  0  0  0  0  0
    3.3405   -0.0912    0.0000 O   0  0  0  0  0  0  0  0  0  0  0  0
    3.3405    2.6801    0.0000 O   0  0  0  0  0  0  0  0  0  0  0  0
    4.9405    2.6801    0.0000 C   0  0  0  0  0  0  0  0  0  0  0  0
   -2.9073    2.8944    0.0000 C   0  0  0  0  0  0  0  0  0  0  0  0
  1  2  1  0  0  0  0
  2  3  1  0  0  0  0
  2 21  2  0  0  0  0
  3  4  2  0  0  0  0
  4  5  1  0  0  0  0
  5  6  2  0  0  0  0
  5  9  1  0  0  0  0
  6  7  1  0  0  0  0
  6 21  1  0  0  0  0
  7  8  1  0  0  0  0
  8  9  2  0  0  0  0
  8 17  1  0  0  0  0
  9 10  1  0  0  0  0
 10 11  1  0  0  0  0
 10 15  1  0  0  0  0
 11 12  1  0  0  0  0
 12 13  1  0  0  0  0
 13 14  1  0  0  0  0
 14 15  1  0  0  0  0
 15 16  1  6  0  0  0
 17 18  2  0  0  0  0
 17 19  1  0  0  0  0
 19 20  1  0  0  0  0
M  END
> <Acceptable>
false

> <IC50>
8.2

$$$$

Generated by Molecular Materials Informatics

 26 29  0  0  0  0  0  0  0  0999 V2000
   -5.6786    2.8944    0.0000 F   0  0  0  0  0  0  0  0  0  0  0  0
   -4.2930    2.0944    0.0000 C   0  0  0  0  0  0  0  0  0  0  0  0
   -4.2930    0.4944    0.0000 C   0  0  0  0  0  0  0  0  0  0  0  0
   -2.9073   -0.3056    0.0000 C   0  0  0  0  0  0  0  0  0  0  0  0
   -1.5217    0.4944    0.0000 C   0  0  0  0  0  0  0  0  0  0  0  0
   -1.5217    2.0944    0.0000 C   0  0  0  0  0  0  0  0  0  0  0  0
    0.0000    2.5889    0.0000 N   0  0  0  0  0  0  0  0  0  0  0  0
    0.9405    1.2944    0.0000 C   0  0  0  0  0  0  0  0  0  0  0  0
    0.0000    0.0000    0.0000 C   0  0  0  0  0  0  0  0  0  0  0  0
    0.4944   -1.5217    0.0000 C   0  0  0  0  0  0  0  0  0  0  0  0
    2.0595   -1.8544    0.0000 C   0  0  0  0  0  0  0  0  0  0  0  0
    2.5539   -3.3760    0.0000 N   0  0  0  0  0  0  0  0  0  0  0  0
    1.4833   -4.5651    0.0000 C   0  0  0  0  0  0  0  0  0  0  0  0
   -0.0818   -4.2324    0.0000 C   0  0  0  0  0  0  0  0  0  0  0  0
   -0.5762   -2.7107    0.0000 C   0  0  0  0  0  0  0  0  0  0  0  0
   -2.1412   -2.3781    0.0000 F   0  0  0  0  0  0  0  0  0  0  0  0
    2.5405    1.2944    0.0000 C   0  0  0  0  0  0  0  0  0  0  0  0
    3.3405   -0.0912    0.0000 O   0  0  0  0  0  0  0  0  0  0  0  0
    3.3405    2.6801    0.0000 N   0  0  0  0  0  0  0  0  0  0  0  0
    4.9405    2.6801    0.0000 C   0  0  0  0  0  0  0  0  0  0  0  0
    5.7405    1.2944    0.0000 C   0  0  0  0  0  0  0  0  0  0  0  0
    7.3405    1.2944    0.0000 C   0  0  0  0  0  0  0  0  0  0  0  0
    8.1405    2.6801    0.0000 C   0  0  0  0  0  0  0  0  0  0  0  0
    7.3405    4.0657    0.0000 C   0  0  0  0  0  0  0  0  0  0  0  0
    5.7405    4.0657    0.0000 C   0  0  0  0  0  0  0  0  0  0  0  0
   -2.9073    2.8944    0.0000 C   0  0  0  0  0  0  0  0  0  0  0  0
  1  2  1  0  0  0  0
  2  3  1  0  0  0  0
  2 26  2  0  0  0  0
  3  4  2  0  0  0  0
  4  5  1  0  0  0  0
  5  6  2  0  0  0  0
  5  9  1  0  0  0  0
  6  7  1  0  0  0  0
  6 26  1  0  0  0  0
  7  8  1  0  0  0  0
  8  9  2  0  0  0  0
  8 17  1  0  0  0  0
  9 10  1  0  0  0  0
 10 11  1  0  0  0  0
 10 15  1  0  0  0  0
 11 12  1  0  0  0  0
 12 13  1  0  0  0  0
 13 14  1  0  0  0  0
 14 15  1  0  0  0  0
 15 16  1  6  0  0  0
 17 18  2  0  0  0  0
 17 19  1  0  0  0  0
 19 20  1  0  0  0  0
 20 21  1  0  0  0  0
 20 25  2  0  0  0  0
 21 22  2  0  0  0  0
 22 23  1  0  0  0  0
 23 24  2  0  0  0  0
 24 25  1  0  0  0  0
M  END
> <Acceptable>
false

> <IC50>
0.93

$$$$

Generated by Molecular Materials Informatics

 24 27  0  0  0  0  0  0  0  0999 V2000
   -5.6786    2.8944    0.0000 F   0  0  0  0  0  0  0  0  0  0  0  0
   -4.2930    2.0944    0.0000 C   0  0  0  0  0  0  0  0  0  0  0  0
   -4.2930    0.4944    0.0000 C   0  0  0  0  0  0  0  0  0  0  0  0
   -2.9073   -0.3056    0.0000 C   0  0  0  0  0  0  0  0  0  0  0  0
   -1.5217    0.4944    0.0000 C   0  0  0  0  0  0  0  0  0  0  0  0
   -1.5217    2.0944    0.0000 C   0  0  0  0  0  0  0  0  0  0  0  0
    0.0000    2.5889    0.0000 N   0  0  0  0  0  0  0  0  0  0  0  0
    0.9405    1.2944    0.0000 C   0  0  0  0  0  0  0  0  0  0  0  0
    0.0000    0.0000    0.0000 C   0  0  0  0  0  0  0  0  0  0  0  0
    0.4944   -1.5217    0.0000 C   0  0  0  0  0  0  0  0  0  0  0  0
    2.0595   -1.8544    0.0000 C   0  0  0  0  0  0  0  0  0  0  0  0
    2.5539   -3.3760    0.0000 N   0  0  0  0  0  0  0  0  0  0  0  0
    1.4833   -4.5651    0.0000 C   0  0  0  0  0  0  0  0  0  0  0  0
   -0.0818   -4.2324    0.0000 C   0  0  0  0  0  0  0  0  0  0  0  0
   -0.5762   -2.7107    0.0000 C   0  0  0  0  0  0  0  0  0  0  0  0
   -2.1412   -2.3781    0.0000 F   0  0  0  0  0  0  0  0  0  0  0  0
    2.5405    1.2944    0.0000 C   0  0  0  0  0  0  0  0  0  0  0  0
    3.2347   -0.1471    0.0000 C   0  0  0  0  0  0  0  0  0  0  0  0
    4.7946   -0.5032    0.0000 C   0  0  0  0  0  0  0  0  0  0  0  0
    6.0455    0.4944    0.0000 C   0  0  0  0  0  0  0  0  0  0  0  0
    6.0455    2.0944    0.0000 C   0  0  0  0  0  0  0  0  0  0  0  0
    4.7946    3.0920    0.0000 C   0  0  0  0  0  0  0  0  0  0  0  0
    3.2347    2.7360    0.0000 C   0  0  0  0  0  0  0  0  0  0  0  0
   -2.9073    2.8944    0.0000 C   0  0  0  0  0  0  0  0  0  0  0  0
  1  2  1  0  0  0  0
  2  3  1  0  0  0  0
  2 24  2  0  0  0  0
  3  4  2  0  0  0  0
  4  5  1  0  0  0  0
  5  6  2  0  0  0  0
  5  9  1  0  0  0  0
  6  7  1  0  0  0  0
  6 24  1  0  0  0  0
  7  8  1  0  0  0  0
  8  9  2  0  0  0  0
  8 17  1  0  0  0  0
  9 10  1  0  0  0  0
 10 11  1  0  0  0  0
 10 15  1  0  0  0  0
 11 12  1  0  0  0  0
 12 13  1  0  0  0  0
 13 14  1  0  0  0  0
 14 15  1  0  0  0  0
 15 16  1  0  0  0  0
 17 18  1  0  0  0  0
 17 23  1  0  0  0  0
 18 19  1  0  0  0  0
 19 20  1  0  0  0  0
 20 21  1  0  0  0  0
 21 22  1  0  0  0  0
 22 23  1  0  0  0  0
M  END
> <Acceptable>
false

> <IC50>
5.4

$$$$

Generated by Molecular Materials Informatics

 23 26  0  0  0  0  0  0  0  0999 V2000
   -5.6786    2.8944    0.0000 F   0  0  0  0  0  0  0  0  0  0  0  0
   -4.2930    2.0944    0.0000 C   0  0  0  0  0  0  0  0  0  0  0  0
   -4.2930    0.4944    0.0000 C   0  0  0  0  0  0  0  0  0  0  0  0
   -2.9073   -0.3056    0.0000 C   0  0  0  0  0  0  0  0  0  0  0  0
   -1.5217    0.4944    0.0000 C   0  0  0  0  0  0  0  0  0  0  0  0
   -1.5217    2.0944    0.0000 C   0  0  0  0  0  0  0  0  0  0  0  0
    0.0000    2.5889    0.0000 N   0  0  0  0  0  0  0  0  0  0  0  0
    0.9405    1.2944    0.0000 C   0  0  0  0  0  0  0  0  0  0  0  0
    2.5405    1.2944    0.0000 C   0  0  0  0  0  0  0  0  0  0  0  0
    3.3405   -0.0912    0.0000 C   0  0  0  0  0  0  0  0  0  0  0  0
    4.9405   -0.0912    0.0000 N   0  0  0  0  0  0  0  0  0  0  0  0
    5.7405    1.2944    0.0000 C   0  0  0  0  0  0  0  0  0  0  0  0
    4.9405    2.6801    0.0000 C   0  0  0  0  0  0  0  0  0  0  0  0
    3.3405    2.6801    0.0000 C   0  0  0  0  0  0  0  0  0  0  0  0
    0.0000    0.0000    0.0000 C   0  0  0  0  0  0  0  0  0  0  0  0
    0.4944   -1.5217    0.0000 C   0  0  0  0  0  0  0  0  0  0  0  0
    2.0595   -1.8544    0.0000 C   0  0  0  0  0  0  0  0  0  0  0  0
    2.5539   -3.3760    0.0000 N   0  0  0  0  0  0  0  0  0  0  0  0
    1.4833   -4.5651    0.0000 C   0  0  0  0  0  0  0  0  0  0  0  0
   -0.0818   -4.2324    0.0000 C   0  0  0  0  0  0  0  0  0  0  0  0
   -0.5762   -2.7107    0.0000 C   0  0  0  0  0  0  0  0  0  0  0  0
   -2.1412   -2.3781    0.0000 F   0  0  0  0  0  0  0  0  0  0  0  0
   -2.9073    2.8944    0.0000 C   0  0  0  0  0  0  0  0  0  0  0  0
  1  2  1  0  0  0  0
  2  3  1  0  0  0  0
  2 23  2  0  0  0  0
  3  4  2  0  0  0  0
  4  5  1  0  0  0  0
  5  6  2  0  0  0  0
  5 15  1  0  0  0  0
  6  7  1  0  0  0  0
  6 23  1  0  0  0  0
  7  8  1  0  0  0  0
  8  9  1  0  0  0  0
  8 15  2  0  0  0  0
  9 10  2  0  0  0  0
  9 14  1  0  0  0  0
 10 11  1  0  0  0  0
 11 12  1  0  0  0  0
 12 13  2  0  0  0  0
 13 14  1  0  0  0  0
 15 16  1  0  0  0  0
 16 17  1  0  0  0  0
 16 21  1  0  0  0  0
 17 18  1  0  0  0  0
 18 19  1  0  0  0  0
 19 20  1  0  0  0  0
 20 21  1  0  0  0  0
 21 22  1  0  0  0  0
M  END
> <Acceptable>
false

> <IC50>
2.5

$$$$

Generated by Molecular Materials Informatics

 23 26  0  0  0  0  0  0  0  0999 V2000
   -5.6786    0.3056    0.0000 F   0  0  0  0  0  0  0  0  0  0  0  0
   -4.2930   -0.4944    0.0000 C   0  0  0  0  0  0  0  0  0  0  0  0
   -4.2930   -2.0944    0.0000 C   0  0  0  0  0  0  0  0  0  0  0  0
   -2.9073   -2.8944    0.0000 C   0  0  0  0  0  0  0  0  0  0  0  0
   -1.5217   -2.0944    0.0000 C   0  0  0  0  0  0  0  0  0  0  0  0
    0.0000   -2.5889    0.0000 N   0  0  0  0  0  0  0  0  0  0  0  0
    0.9405   -1.2944    0.0000 C   0  0  0  0  0  0  0  0  0  0  0  0
    2.5405   -1.2944    0.0000 C   0  0  0  0  0  0  0  0  0  0  0  0
    3.3405   -2.6801    0.0000 C   0  0  0  0  0  0  0  0  0  0  0  0
    4.9405   -2.6801    0.0000 C   0  0  0  0  0  0  0  0  0  0  0  0
    5.7405   -1.2944    0.0000 C   0  0  0  0  0  0  0  0  0  0  0  0
    4.9405    0.0912    0.0000 C   0  0  0  0  0  0  0  0  0  0  0  0
    3.3405    0.0912    0.0000 C   0  0  0  0  0  0  0  0  0  0  0  0
    0.0000    0.0000    0.0000 C   0  0  0  0  0  0  0  0  0  0  0  0
   -1.5217   -0.4944    0.0000 C   0  0  0  0  0  0  0  0  0  0  0  0
   -2.9073    0.3056    0.0000 C   0  0  0  0  0  0  0  0  0  0  0  0
    0.4944    1.5217    0.0000 C   0  0  0  0  0  0  0  0  0  0  0  0
    2.0595    1.8543    0.0000 C   0  0  0  0  0  0  0  0  0  0  0  0
    2.5539    3.3760    0.0000 N   0  0  0  0  0  0  0  0  0  0  0  0
    1.4833    4.5651    0.0000 C   0  0  0  0  0  0  0  0  0  0  0  0
   -0.0818    4.2324    0.0000 C   0  0  0  0  0  0  0  0  0  0  0  0
   -0.5762    2.7107    0.0000 C   0  0  0  0  0  0  0  0  0  0  0  0
   -2.1412    2.3781    0.0000 F   0  0  0  0  0  0  0  0  0  0  0  0
  1  2  1  0  0  0  0
  2  3  1  0  0  0  0
  2 16  2  0  0  0  0
  3  4  2  0  0  0  0
  4  5  1  0  0  0  0
  5  6  1  0  0  0  0
  5 15  2  0  0  0  0
  6  7  1  0  0  0  0
  7  8  1  0  0  0  0
  7 14  2  0  0  0  0
  8  9  1  0  0  0  0
  8 13  2  0  0  0  0
  9 10  2  0  0  0  0
 10 11  1  0  0  0  0
 11 12  2  0  0  0  0
 12 13  1  0  0  0  0
 14 15  1  0  0  0  0
 14 17  1  0  0  0  0
 15 16  1  0  0  0  0
 17 18  1  0  0  0  0
 17 22  1  0  0  0  0
 18 19  1  0  0  0  0
 19 20  1  0  0  0  0
 20 21  1  0  0  0  0
 21 22  1  0  0  0  0
 22 23  1  0  0  0  0
M  END
> <Acceptable>
false

> <IC50>
7

$$$$

Generated by Molecular Materials Informatics

 24 27  0  0  0  0  0  0  0  0999 V2000
   -7.3405    1.2944    0.0000 F   0  0  0  0  0  0  0  0  0  0  0  0
   -5.7405    1.2944    0.0000 C   0  0  0  0  0  0  0  0  0  0  0  0
   -4.9405    2.6801    0.0000 C   0  0  0  0  0  0  0  0  0  0  0  0
   -3.3405    2.6801    0.0000 C   0  0  0  0  0  0  0  0  0  0  0  0
   -2.5405    1.2944    0.0000 C   0  0  0  0  0  0  0  0  0  0  0  0
   -3.3405   -0.0912    0.0000 C   0  0  0  0  0  0  0  0  0  0  0  0
   -4.9405   -0.0912    0.0000 C   0  0  0  0  0  0  0  0  0  0  0  0
   -0.9405    1.2944    0.0000 C   0  0  0  0  0  0  0  0  0  0  0  0
    0.0000    2.5889    0.0000 N   0  0  0  0  0  0  0  0  0  0  0  0
    1.5217    2.0944    0.0000 C   0  0  0  0  0  0  0  0  0  0  0  0
    2.9073    2.8944    0.0000 C   0  0  0  0  0  0  0  0  0  0  0  0
    4.2930    2.0944    0.0000 C   0  0  0  0  0  0  0  0  0  0  0  0
    5.6786    2.8944    0.0000 F   0  0  0  0  0  0  0  0  0  0  0  0
    4.2930    0.4944    0.0000 C   0  0  0  0  0  0  0  0  0  0  0  0
    2.9073   -0.3056    0.0000 C   0  0  0  0  0  0  0  0  0  0  0  0
    1.5217    0.4944    0.0000 C   0  0  0  0  0  0  0  0  0  0  0  0
    0.0000    0.0000    0.0000 C   0  0  0  0  0  0  0  0  0  0  0  0
   -0.4944   -1.5217    0.0000 C   0  0  0  0  0  0  0  0  0  0  0  0
   -2.0595   -1.8543    0.0000 C   0  0  0  0  0  0  0  0  0  0  0  0
   -2.5539   -3.3760    0.0000 N   0  0  0  0  0  0  0  0  0  0  0  0
   -1.4833   -4.5651    0.0000 C   0  0  0  0  0  0  0  0  0  0  0  0
    0.0818   -4.2324    0.0000 C   0  0  0  0  0  0  0  0  0  0  0  0
    0.5762   -2.7107    0.0000 C   0  0  0  0  0  0  0  0  0  0  0  0
    2.1412   -2.3781    0.0000 F   0  0  0  0  0  0  0  0  0  0  0  0
  1  2  1  0  0  0  0
  2  3  1  0  0  0  0
  2  7  2  0  0  0  0
  3  4  2  0  0  0  0
  4  5  1  0  0  0  0
  5  6  2  0  0  0  0
  5  8  1  0  0  0  0
  6  7  1  0  0  0  0
  8  9  1  0  0  0  0
  8 17  2  0  0  0  0
  9 10  1  0  0  0  0
 10 11  1  0  0  0  0
 10 16  2  0  0  0  0
 11 12  2  0  0  0  0
 12 13  1  0  0  0  0
 12 14  1  0  0  0  0
 14 15  2  0  0  0  0
 15 16  1  0  0  0  0
 16 17  1  0  0  0  0
 17 18  1  0  0  0  0
 18 19  1  0  0  0  0
 18 23  1  0  0  0  0
 19 20  1  0  0  0  0
 20 21  1  0  0  0  0
 21 22  1  0  0  0  0
 22 23  1  0  0  0  0
 23 24  1  1  0  0  0
M  END
> <Acceptable>
false

> <IC50>
1.6

$$$$

Generated by Molecular Materials Informatics

 23 26  0  0  0  0  0  0  0  0999 V2000
   -7.3405    1.2944    0.0000 F   0  0  0  0  0  0  0  0  0  0  0  0
   -5.7405    1.2944    0.0000 C   0  0  0  0  0  0  0  0  0  0  0  0
   -4.9405    2.6801    0.0000 C   0  0  0  0  0  0  0  0  0  0  0  0
   -3.3405    2.6801    0.0000 C   0  0  0  0  0  0  0  0  0  0  0  0
   -2.5405    1.2944    0.0000 C   0  0  0  0  0  0  0  0  0  0  0  0
   -3.3405   -0.0912    0.0000 C   0  0  0  0  0  0  0  0  0  0  0  0
   -4.9405   -0.0912    0.0000 C   0  0  0  0  0  0  0  0  0  0  0  0
   -0.9405    1.2944    0.0000 C   0  0  0  0  0  0  0  0  0  0  0  0
    0.0000    2.5889    0.0000 N   0  0  0  0  0  0  0  0  0  0  0  0
    1.5217    2.0944    0.0000 C   0  0  0  0  0  0  0  0  0  0  0  0
    2.9073    2.8944    0.0000 C   0  0  0  0  0  0  0  0  0  0  0  0
    4.2930    2.0944    0.0000 C   0  0  0  0  0  0  0  0  0  0  0  0
    5.6786    2.8944    0.0000 F   0  0  0  0  0  0  0  0  0  0  0  0
    4.2930    0.4944    0.0000 C   0  0  0  0  0  0  0  0  0  0  0  0
    2.9073   -0.3056    0.0000 C   0  0  0  0  0  0  0  0  0  0  0  0
    1.5217    0.4944    0.0000 C   0  0  0  0  0  0  0  0  0  0  0  0
    0.0000    0.0000    0.0000 C   0  0  0  0  0  0  0  0  0  0  0  0
   -0.4944   -1.5217    0.0000 C   0  0  0  0  0  0  0  0  0  0  0  0
    0.5762   -2.7107    0.0000 C   0  0  0  0  0  0  0  0  0  0  0  0
    0.0818   -4.2324    0.0000 N   0  0  0  0  0  0  0  0  0  0  0  0
   -1.4833   -4.5651    0.0000 C   0  0  0  0  0  0  0  0  0  0  0  0
   -2.5539   -3.3760    0.0000 C   0  0  0  0  0  0  0  0  0  0  0  0
   -2.0595   -1.8543    0.0000 C   0  0  0  0  0  0  0  0  0  0  0  0
  1  2  1  0  0  0  0
  2  3  1  0  0  0  0
  2  7  2  0  0  0  0
  3  4  2  0  0  0  0
  4  5  1  0  0  0  0
  5  6  2  0  0  0  0
  5  8  1  0  0  0  0
  6  7  1  0  0  0  0
  8  9  1  0  0  0  0
  8 17  2  0  0  0  0
  9 10  1  0  0  0  0
 10 11  1  0  0  0  0
 10 16  2  0  0  0  0
 11 12  2  0  0  0  0
 12 13  1  0  0  0  0
 12 14  1  0  0  0  0
 14 15  2  0  0  0  0
 15 16  1  0  0  0  0
 16 17  1  0  0  0  0
 17 18  1  0  0  0  0
 18 19  1  0  0  0  0
 18 23  1  0  0  0  0
 19 20  1  0  0  0  0
 20 21  1  0  0  0  0
 21 22  1  0  0  0  0
 22 23  1  0  0  0  0
M  END
> <Acceptable>
false

> <IC50>
1.3

$$$$

Generated by Molecular Materials Informatics

 22 25  0  0  0  0  0  0  0  0999 V2000
   -2.1412    2.3781    0.0000 F   0  0  0  0  0  0  0  0  0  0  0  0
   -0.5762    2.7107    0.0000 C   0  0  0  0  0  0  0  0  0  0  0  0
   -0.0818    4.2324    0.0000 C   0  0  0  0  0  0  0  0  0  0  0  0
    1.4833    4.5651    0.0000 C   0  0  0  0  0  0  0  0  0  0  0  0
    2.5539    3.3760    0.0000 N   0  0  0  0  0  0  0  0  0  0  0  0
    2.0595    1.8544    0.0000 C   0  0  0  0  0  0  0  0  0  0  0  0
    0.4944    1.5217    0.0000 C   0  0  0  0  0  0  0  0  0  0  0  0
    0.0000    0.0000    0.0000 C   0  0  0  0  0  0  0  0  0  0  0  0
   -1.5217   -0.4944    0.0000 C   0  0  0  0  0  0  0  0  0  0  0  0
   -2.9073    0.3056    0.0000 C   0  0  0  0  0  0  0  0  0  0  0  0
   -4.2930   -0.4944    0.0000 C   0  0  0  0  0  0  0  0  0  0  0  0
   -4.2930   -2.0944    0.0000 C   0  0  0  0  0  0  0  0  0  0  0  0
   -2.9073   -2.8944    0.0000 C   0  0  0  0  0  0  0  0  0  0  0  0
   -1.5217   -2.0944    0.0000 C   0  0  0  0  0  0  0  0  0  0  0  0
    0.0000   -2.5889    0.0000 N   0  0  0  0  0  0  0  0  0  0  0  0
    0.9405   -1.2944    0.0000 C   0  0  0  0  0  0  0  0  0  0  0  0
    2.5161   -1.5723    0.0000 C   0  0  0  0  0  0  0  0  0  0  0  0
    3.0634   -3.0758    0.0000 C   0  0  0  0  0  0  0  0  0  0  0  0
    4.6391   -3.3536    0.0000 C   0  0  0  0  0  0  0  0  0  0  0  0
    5.6675   -2.1279    0.0000 C   0  0  0  0  0  0  0  0  0  0  0  0
    5.1203   -0.6244    0.0000 C   0  0  0  0  0  0  0  0  0  0  0  0
    3.5446   -0.3466    0.0000 C   0  0  0  0  0  0  0  0  0  0  0  0
  1  2  1  0  0  0  0
  2  3  1  0  0  0  0
  2  7  1  0  0  0  0
  3  4  1  0  0  0  0
  4  5  1  0  0  0  0
  5  6  1  0  0  0  0
  6  7  1  0  0  0  0
  7  8  1  0  0  0  0
  8  9  1  0  0  0  0
  8 16  2  0  0  0  0
  9 10  1  0  0  0  0
  9 14  2  0  0  0  0
 10 11  2  0  0  0  0
 11 12  1  0  0  0  0
 12 13  2  0  0  0  0
 13 14  1  0  0  0  0
 14 15  1  0  0  0  0
 15 16  1  0  0  0  0
 16 17  1  0  0  0  0
 17 18  1  0  0  0  0
 17 22  2  0  0  0  0
 18 19  2  0  0  0  0
 19 20  1  0  0  0  0
 20 21  2  0  0  0  0
 21 22  1  0  0  0  0
M  END
> <Acceptable>
false

> <IC50>
1.1

$$$$

Generated by Molecular Materials Informatics

 33 36  0  0  0  0  0  0  0  0999 V2000
   -4.1569    5.6000    0.0000 F   0  0  0  0  0  0  0  0  0  0  0  0
   -5.5426    4.8000    0.0000 C   0  0  0  0  0  0  0  0  0  0  0  0
   -6.9282    5.6000    0.0000 F   0  0  0  0  0  0  0  0  0  0  0  0
   -5.5426    3.2000    0.0000 O   0  0  0  0  0  0  0  0  0  0  0  0
   -4.1569    2.4000    0.0000 C   0  0  0  0  0  0  0  0  0  0  0  0
   -2.7713    3.2000    0.0000 C   0  0  0  0  0  0  0  0  0  0  0  0
   -1.3856    2.4000    0.0000 C   0  0  0  0  0  0  0  0  0  0  0  0
   -1.3856    0.8000    0.0000 C   0  0  0  0  0  0  0  0  0  0  0  0
   -2.7713    0.0000    0.0000 C   0  0  0  0  0  0  0  0  0  0  0  0
   -4.1569    0.8000    0.0000 C   0  0  0  0  0  0  0  0  0  0  0  0
   -5.5426    0.0000    0.0000 O   0  0  0  0  0  0  0  0  0  0  0  0
   -5.5426   -1.6000    0.0000 C   0  0  0  0  0  0  0  0  0  0  0  0
   -4.4112   -2.7314    0.0000 C   0  0  0  0  0  0  0  0  0  0  0  0
   -5.5426   -3.8627    0.0000 C   0  0  0  0  0  0  0  0  0  0  0  0
   -6.6739   -2.7314    0.0000 C   0  0  0  0  0  0  0  0  0  0  0  0
    0.0000    0.0000    0.0000 C   0  0  0  0  0  0  0  0  0  0  0  0
    1.3856    0.8000    0.0000 C   0  0  0  0  0  0  0  0  0  0  0  0
    1.3856    2.4000    0.0000 C   0  0  0  0  0  0  0  0  0  0  0  0
    2.7713    3.2000    0.0000 N   0  0  0  0  0  0  0  0  0  0  0  0
    4.1569    2.4000    0.0000 C   0  0  0  0  0  0  0  0  0  0  0  0
    4.1569    0.8000    0.0000 C   0  0  0  0  0  0  0  0  0  0  0  0
    2.7713    0.0000    0.0000 C   0  0  0  0  0  0  0  0  0  0  0  0
    5.5426    3.2000    0.0000 C   0  0  0  0  0  0  0  0  0  0  0  0
    5.5426    4.8000    0.0000 O   0  0  0  0  0  0  0  0  0  0  0  0
    6.9282    2.4000    0.0000 C   0  0  0  0  0  0  0  0  0  0  0  0
    6.9282    4.0000    0.0000 C   0  0  0  0  0  0  0  0  0  0  0  0
    0.0000   -1.6000    0.0000 C   0  0  0  0  0  0  0  0  0  0  0  0
    1.3856   -2.4000    0.0000 C   0  0  0  0  0  0  0  0  0  0  0  0
    1.3856   -4.0000    0.0000 C   0  0  0  0  0  0  0  0  0  0  0  0
    0.0000   -4.8000    0.0000 N   0  3  0  0  0  0  0  0  0  0  0  0
    0.0000   -6.4000    0.0000 O   0  0  0  0  0  0  0  0  0  0  0  0
   -1.3856   -4.0000    0.0000 C   0  0  0  0  0  0  0  0  0  0  0  0
   -1.3856   -2.4000    0.0000 C   0  0  0  0  0  0  0  0  0  0  0  0
  1  2  1  0  0  0  0
  2  3  1  0  0  0  0
  2  4  1  0  0  0  0
  4  5  1  0  0  0  0
  5  6  1  0  0  0  0
  5 10  2  0  0  0  0
  6  7  2  0  0  0  0
  7  8  1  0  0  0  0
  8  9  2  0  0  0  0
  8 16  1  0  0  0  0
  9 10  1  0  0  0  0
 10 11  1  0  0  0  0
 11 12  1  0  0  0  0
 12 13  1  0  0  0  0
 12 15  1  0  0  0  0
 13 14  1  0  0  0  0
 14 15  1  0  0  0  0
 16 17  1  0  0  0  0
 16 27  1  0  0  0  0
 17 18  2  0  0  0  0
 17 22  1  0  0  0  0
 18 19  1  0  0  0  0
 19 20  1  0  0  0  0
 20 21  1  0  0  0  0
 20 23  1  0  0  0  0
 21 22  2  0  0  0  0
 23 24  1  0  0  0  0
 23 25  1  0  0  0  0
 23 26  1  0  0  0  0
 27 28  1  0  0  0  0
 27 33  2  0  0  0  0
 28 29  2  0  0  0  0
 29 30  1  0  0  0  0
 30 31  1  0  0  0  0
 30 32  2  0  0  0  0
 32 33  1  0  0  0  0
M  CHG  1  30   1
M  END
> <Acceptable>
false

> <IC50>
22.4

$$$$

Generated by Molecular Materials Informatics

 32 34  0  0  0  0  0  0  0  0999 V2000
   -4.1569    5.6000    0.0000 F   0  0  0  0  0  0  0  0  0  0  0  0
   -5.5426    4.8000    0.0000 C   0  0  0  0  0  0  0  0  0  0  0  0
   -6.9282    5.6000    0.0000 F   0  0  0  0  0  0  0  0  0  0  0  0
   -5.5426    3.2000    0.0000 O   0  0  0  0  0  0  0  0  0  0  0  0
   -4.1569    2.4000    0.0000 C   0  0  0  0  0  0  0  0  0  0  0  0
   -2.7713    3.2000    0.0000 C   0  0  0  0  0  0  0  0  0  0  0  0
   -1.3856    2.4000    0.0000 C   0  0  0  0  0  0  0  0  0  0  0  0
   -1.3856    0.8000    0.0000 C   0  0  0  0  0  0  0  0  0  0  0  0
   -2.7713    0.0000    0.0000 C   0  0  0  0  0  0  0  0  0  0  0  0
   -4.1569    0.8000    0.0000 C   0  0  0  0  0  0  0  0  0  0  0  0
   -5.5426    0.0000    0.0000 O   0  0  0  0  0  0  0  0  0  0  0  0
   -5.5426   -1.6000    0.0000 C   0  0  0  0  0  0  0  0  0  0  0  0
   -4.1569   -2.4000    0.0000 F   0  0  0  0  0  0  0  0  0  0  0  0
   -6.9282   -2.4000    0.0000 F   0  0  0  0  0  0  0  0  0  0  0  0
    0.0000    0.0000    0.0000 C   0  0  0  0  0  0  0  0  0  0  0  0
    1.3856    0.8000    0.0000 C   0  0  0  0  0  0  0  0  0  0  0  0
    1.3856    2.4000    0.0000 C   0  0  0  0  0  0  0  0  0  0  0  0
    2.7713    3.2000    0.0000 N   0  0  0  0  0  0  0  0  0  0  0  0
    4.1569    2.4000    0.0000 C   0  0  0  0  0  0  0  0  0  0  0  0
    4.1569    0.8000    0.0000 C   0  0  0  0  0  0  0  0  0  0  0  0
    2.7713    0.0000    0.0000 C   0  0  0  0  0  0  0  0  0  0  0  0
    5.5426    3.2000    0.0000 C   0  0  0  0  0  0  0  0  0  0  0  0
    5.5426    4.8000    0.0000 O   0  0  0  0  0  0  0  0  0  0  0  0
    6.9282    2.4000    0.0000 C   0  0  0  0  0  0  0  0  0  0  0  0
    6.9282    4.0000    0.0000 C   0  0  0  0  0  0  0  0  0  0  0  0
    0.0000   -1.6000    0.0000 C   0  0  0  0  0  0  0  0  0  0  0  0
    1.3856   -2.4000    0.0000 C   0  0  0  0  0  0  0  0  0  0  0  0
    1.3856   -4.0000    0.0000 C   0  0  0  0  0  0  0  0  0  0  0  0
    0.0000   -4.8000    0.0000 N   0  3  0  0  0  0  0  0  0  0  0  0
    0.0000   -6.4000    0.0000 O   0  5  0  0  0  0  0  0  0  0  0  0
   -1.3856   -4.0000    0.0000 C   0  0  0  0  0  0  0  0  0  0  0  0
   -1.3856   -2.4000    0.0000 C   0  0  0  0  0  0  0  0  0  0  0  0
  1  2  1  0  0  0  0
  2  3  1  0  0  0  0
  2  4  1  0  0  0  0
  4  5  1  0  0  0  0
  5  6  1  0  0  0  0
  5 10  2  0  0  0  0
  6  7  2  0  0  0  0
  7  8  1  0  0  0  0
  8  9  2  0  0  0  0
  8 15  1  0  0  0  0
  9 10  1  0  0  0  0
 10 11  1  0  0  0  0
 11 12  1  0  0  0  0
 12 13  1  0  0  0  0
 12 14  1  0  0  0  0
 15 16  1  6  0  0  0
 15 26  1  0  0  0  0
 16 17  2  0  0  0  0
 16 21  1  0  0  0  0
 17 18  1  0  0  0  0
 18 19  1  0  0  0  0
 19 20  1  0  0  0  0
 19 22  1  0  0  0  0
 20 21  2  0  0  0  0
 22 23  1  0  0  0  0
 22 24  1  0  0  0  0
 22 25  1  0  0  0  0
 26 27  1  0  0  0  0
 26 32  2  0  0  0  0
 27 28  2  0  0  0  0
 28 29  1  0  0  0  0
 29 30  1  0  0  0  0
 29 31  2  0  0  0  0
 31 32  1  0  0  0  0
M  CHG  2  29   1  30  -1
M  END
> <Acceptable>
false

> <IC50>
22.7

$$$$

Generated by Molecular Materials Informatics

 32 34  0  0  0  0  0  0  0  0999 V2000
   -4.1569    5.6000    0.0000 F   0  0  0  0  0  0  0  0  0  0  0  0
   -5.5426    4.8000    0.0000 C   0  0  0  0  0  0  0  0  0  0  0  0
   -6.9282    5.6000    0.0000 F   0  0  0  0  0  0  0  0  0  0  0  0
   -5.5426    3.2000    0.0000 O   0  0  0  0  0  0  0  0  0  0  0  0
   -4.1569    2.4000    0.0000 C   0  0  0  0  0  0  0  0  0  0  0  0
   -2.7713    3.2000    0.0000 C   0  0  0  0  0  0  0  0  0  0  0  0
   -1.3856    2.4000    0.0000 C   0  0  0  0  0  0  0  0  0  0  0  0
   -1.3856    0.8000    0.0000 C   0  0  0  0  0  0  0  0  0  0  0  0
   -2.7713    0.0000    0.0000 C   0  0  0  0  0  0  0  0  0  0  0  0
   -4.1569    0.8000    0.0000 C   0  0  0  0  0  0  0  0  0  0  0  0
   -5.5426    0.0000    0.0000 O   0  0  0  0  0  0  0  0  0  0  0  0
   -5.5426   -1.6000    0.0000 C   0  0  0  0  0  0  0  0  0  0  0  0
   -4.1569   -2.4000    0.0000 F   0  0  0  0  0  0  0  0  0  0  0  0
   -6.9282   -2.4000    0.0000 F   0  0  0  0  0  0  0  0  0  0  0  0
    0.0000    0.0000    0.0000 C   0  0  0  0  0  0  0  0  0  0  0  0
    1.3856    0.8000    0.0000 C   0  0  0  0  0  0  0  0  0  0  0  0
    1.3856    2.4000    0.0000 C   0  0  0  0  0  0  0  0  0  0  0  0
    2.7713    3.2000    0.0000 N   0  0  0  0  0  0  0  0  0  0  0  0
    4.1569    2.4000    0.0000 C   0  0  0  0  0  0  0  0  0  0  0  0
    4.1569    0.8000    0.0000 C   0  0  0  0  0  0  0  0  0  0  0  0
    2.7713    0.0000    0.0000 C   0  0  0  0  0  0  0  0  0  0  0  0
    5.5426    3.2000    0.0000 C   0  0  0  0  0  0  0  0  0  0  0  0
    5.5426    4.8000    0.0000 O   0  0  0  0  0  0  0  0  0  0  0  0
    6.9282    2.4000    0.0000 C   0  0  0  0  0  0  0  0  0  0  0  0
    6.9282    4.0000    0.0000 C   0  0  0  0  0  0  0  0  0  0  0  0
    0.0000   -1.6000    0.0000 C   0  0  0  0  0  0  0  0  0  0  0  0
    1.3856   -2.4000    0.0000 C   0  0  0  0  0  0  0  0  0  0  0  0
    1.3856   -4.0000    0.0000 C   0  0  0  0  0  0  0  0  0  0  0  0
    0.0000   -4.8000    0.0000 N   0  3  0  0  0  0  0  0  0  0  0  0
    0.0000   -6.4000    0.0000 O   0  5  0  0  0  0  0  0  0  0  0  0
   -1.3856   -4.0000    0.0000 C   0  0  0  0  0  0  0  0  0  0  0  0
   -1.3856   -2.4000    0.0000 C   0  0  0  0  0  0  0  0  0  0  0  0
  1  2  1  0  0  0  0
  2  3  1  0  0  0  0
  2  4  1  0  0  0  0
  4  5  1  0  0  0  0
  5  6  1  0  0  0  0
  5 10  2  0  0  0  0
  6  7  2  0  0  0  0
  7  8  1  0  0  0  0
  8  9  2  0  0  0  0
  8 15  1  0  0  0  0
  9 10  1  0  0  0  0
 10 11  1  0  0  0  0
 11 12  1  0  0  0  0
 12 13  1  0  0  0  0
 12 14  1  0  0  0  0
 15 16  1  0  0  0  0
 15 26  1  1  0  0  0
 16 17  2  0  0  0  0
 16 21  1  0  0  0  0
 17 18  1  0  0  0  0
 18 19  1  0  0  0  0
 19 20  1  0  0  0  0
 19 22  1  0  0  0  0
 20 21  2  0  0  0  0
 22 23  1  0  0  0  0
 22 24  1  0  0  0  0
 22 25  1  0  0  0  0
 26 27  1  0  0  0  0
 26 32  2  0  0  0  0
 27 28  2  0  0  0  0
 28 29  1  0  0  0  0
 29 30  1  0  0  0  0
 29 31  2  0  0  0  0
 31 32  1  0  0  0  0
M  CHG  2  29   1  30  -1
M  END
> <Acceptable>
false

> <IC50>
25.4

$$$$

Generated by Molecular Materials Informatics

 37 40  0  0  0  0  0  0  0  0999 V2000
   -4.1569    5.6000    0.0000 F   0  0  0  0  0  0  0  0  0  0  0  0
   -5.5426    4.8000    0.0000 C   0  0  0  0  0  0  0  0  0  0  0  0
   -6.9282    5.6000    0.0000 F   0  0  0  0  0  0  0  0  0  0  0  0
   -5.5426    3.2000    0.0000 O   0  0  0  0  0  0  0  0  0  0  0  0
   -4.1569    2.4000    0.0000 C   0  0  0  0  0  0  0  0  0  0  0  0
   -2.7713    3.2000    0.0000 C   0  0  0  0  0  0  0  0  0  0  0  0
   -1.3856    2.4000    0.0000 C   0  0  0  0  0  0  0  0  0  0  0  0
   -1.3856    0.8000    0.0000 C   0  0  0  0  0  0  0  0  0  0  0  0
   -2.7713    0.0000    0.0000 C   0  0  0  0  0  0  0  0  0  0  0  0
   -4.1569    0.8000    0.0000 C   0  0  0  0  0  0  0  0  0  0  0  0
   -5.5426    0.0000    0.0000 O   0  0  0  0  0  0  0  0  0  0  0  0
   -5.5426   -1.6000    0.0000 C   0  0  0  0  0  0  0  0  0  0  0  0
   -4.1569   -2.4000    0.0000 F   0  0  0  0  0  0  0  0  0  0  0  0
   -6.9282   -2.4000    0.0000 F   0  0  0  0  0  0  0  0  0  0  0  0
    0.0000    0.0000    0.0000 C   0  0  0  0  0  0  0  0  0  0  0  0
    1.3856    0.8000    0.0000 C   0  0  0  0  0  0  0  0  0  0  0  0
    1.3856    2.4000    0.0000 C   0  0  0  0  0  0  0  0  0  0  0  0
    2.7713    3.2000    0.0000 N   0  0  0  0  0  0  0  0  0  0  0  0
    4.1569    2.4000    0.0000 C   0  0  0  0  0  0  0  0  0  0  0  0
    4.1569    0.8000    0.0000 C   0  0  0  0  0  0  0  0  0  0  0  0
    2.7713    0.0000    0.0000 C   0  0  0  0  0  0  0  0  0  0  0  0
    5.5426    3.2000    0.0000 C   0  0  0  0  0  0  0  0  0  0  0  0
    6.1549    4.6782    0.0000 O   0  0  0  0  0  0  0  0  0  0  0  0
    4.9303    4.6782    0.0000 C   0  0  0  0  0  0  0  0  0  0  0  0
    6.9282    2.4000    0.0000 C   0  0  0  0  0  0  0  0  0  0  0  0
    8.3138    3.2000    0.0000 C   0  0  0  0  0  0  0  0  0  0  0  0
    9.6995    2.4000    0.0000 C   0  0  0  0  0  0  0  0  0  0  0  0
    9.6995    0.8000    0.0000 C   0  0  0  0  0  0  0  0  0  0  0  0
    8.3138    0.0000    0.0000 C   0  0  0  0  0  0  0  0  0  0  0  0
    6.9282    0.8000    0.0000 C   0  0  0  0  0  0  0  0  0  0  0  0
    0.0000   -1.6000    0.0000 C   0  0  0  0  0  0  0  0  0  0  0  0
    1.3856   -2.4000    0.0000 C   0  0  0  0  0  0  0  0  0  0  0  0
    1.3856   -4.0000    0.0000 C   0  0  0  0  0  0  0  0  0  0  0  0
    0.0000   -4.8000    0.0000 N   0  3  0  0  0  0  0  0  0  0  0  0
    0.0000   -6.4000    0.0000 O   0  0  0  0  0  0  0  0  0  0  0  0
   -1.3856   -4.0000    0.0000 C   0  0  0  0  0  0  0  0  0  0  0  0
   -1.3856   -2.4000    0.0000 C   0  0  0  0  0  0  0  0  0  0  0  0
  1  2  1  0  0  0  0
  2  3  1  0  0  0  0
  2  4  1  0  0  0  0
  4  5  1  0  0  0  0
  5  6  1  0  0  0  0
  5 10  2  0  0  0  0
  6  7  2  0  0  0  0
  7  8  1  0  0  0  0
  8  9  2  0  0  0  0
  8 15  1  0  0  0  0
  9 10  1  0  0  0  0
 10 11  1  0  0  0  0
 11 12  1  0  0  0  0
 12 13  1  0  0  0  0
 12 14  1  0  0  0  0
 15 16  1  0  0  0  0
 15 31  1  0  0  0  0
 16 17  2  0  0  0  0
 16 21  1  0  0  0  0
 17 18  1  0  0  0  0
 18 19  1  0  0  0  0
 19 20  1  0  0  0  0
 19 22  1  0  0  0  0
 20 21  2  0  0  0  0
 22 23  1  0  0  0  0
 22 24  1  0  0  0  0
 22 25  1  0  0  0  0
 25 26  1  0  0  0  0
 25 30  2  0  0  0  0
 26 27  2  0  0  0  0
 27 28  1  0  0  0  0
 28 29  2  0  0  0  0
 29 30  1  0  0  0  0
 31 32  1  0  0  0  0
 31 37  2  0  0  0  0
 32 33  2  0  0  0  0
 33 34  1  0  0  0  0
 34 35  1  0  0  0  0
 34 36  2  0  0  0  0
 36 37  1  0  0  0  0
M  CHG  1  34   1
M  END
> <Acceptable>
false

> <IC50>
1.18

$$$$

Generated by Molecular Materials Informatics

 32 34  0  0  0  0  0  0  0  0999 V2000
   -4.1569    5.6000    0.0000 F   0  0  0  0  0  0  0  0  0  0  0  0
   -5.5426    4.8000    0.0000 C   0  0  0  0  0  0  0  0  0  0  0  0
   -6.9282    5.6000    0.0000 F   0  0  0  0  0  0  0  0  0  0  0  0
   -5.5426    3.2000    0.0000 O   0  0  0  0  0  0  0  0  0  0  0  0
   -4.1569    2.4000    0.0000 C   0  0  0  0  0  0  0  0  0  0  0  0
   -2.7713    3.2000    0.0000 C   0  0  0  0  0  0  0  0  0  0  0  0
   -1.3856    2.4000    0.0000 C   0  0  0  0  0  0  0  0  0  0  0  0
   -1.3856    0.8000    0.0000 C   0  0  0  0  0  0  0  0  0  0  0  0
   -2.7713    0.0000    0.0000 C   0  0  0  0  0  0  0  0  0  0  0  0
   -4.1569    0.8000    0.0000 C   0  0  0  0  0  0  0  0  0  0  0  0
   -5.5426    0.0000    0.0000 O   0  0  0  0  0  0  0  0  0  0  0  0
   -5.5426   -1.6000    0.0000 C   0  0  0  0  0  0  0  0  0  0  0  0
   -4.1569   -2.4000    0.0000 C   0  0  0  0  0  0  0  0  0  0  0  0
   -6.9282   -2.4000    0.0000 C   0  0  0  0  0  0  0  0  0  0  0  0
    0.0000    0.0000    0.0000 C   0  0  0  0  0  0  0  0  0  0  0  0
    1.3856    0.8000    0.0000 C   0  0  0  0  0  0  0  0  0  0  0  0
    1.3856    2.4000    0.0000 C   0  0  0  0  0  0  0  0  0  0  0  0
    2.7713    3.2000    0.0000 N   0  0  0  0  0  0  0  0  0  0  0  0
    4.1569    2.4000    0.0000 C   0  0  0  0  0  0  0  0  0  0  0  0
    4.1569    0.8000    0.0000 C   0  0  0  0  0  0  0  0  0  0  0  0
    2.7713    0.0000    0.0000 C   0  0  0  0  0  0  0  0  0  0  0  0
    5.5426    3.2000    0.0000 C   0  0  0  0  0  0  0  0  0  0  0  0
    5.5426    4.8000    0.0000 O   0  0  0  0  0  0  0  0  0  0  0  0
    6.9282    2.4000    0.0000 C   0  0  0  0  0  0  0  0  0  0  0  0
    6.9282    4.0000    0.0000 C   0  0  0  0  0  0  0  0  0  0  0  0
    0.0000   -1.6000    0.0000 C   0  0  0  0  0  0  0  0  0  0  0  0
    1.3856   -2.4000    0.0000 C   0  0  0  0  0  0  0  0  0  0  0  0
    1.3856   -4.0000    0.0000 C   0  0  0  0  0  0  0  0  0  0  0  0
    0.0000   -4.8000    0.0000 N   0  3  0  0  0  0  0  0  0  0  0  0
    0.0000   -6.4000    0.0000 O   0  5  0  0  0  0  0  0  0  0  0  0
   -1.3856   -4.0000    0.0000 C   0  0  0  0  0  0  0  0  0  0  0  0
   -1.3856   -2.4000    0.0000 C   0  0  0  0  0  0  0  0  0  0  0  0
  1  2  1  0  0  0  0
  2  3  1  0  0  0  0
  2  4  1  0  0  0  0
  4  5  1  0  0  0  0
  5  6  1  0  0  0  0
  5 10  2  0  0  0  0
  6  7  2  0  0  0  0
  7  8  1  0  0  0  0
  8  9  2  0  0  0  0
  8 15  1  0  0  0  0
  9 10  1  0  0  0  0
 10 11  1  0  0  0  0
 11 12  1  0  0  0  0
 12 13  1  0  0  0  0
 12 14  1  0  0  0  0
 15 16  1  6  0  0  0
 15 26  1  0  0  0  0
 16 17  2  0  0  0  0
 16 21  1  0  0  0  0
 17 18  1  0  0  0  0
 18 19  1  0  0  0  0
 19 20  1  0  0  0  0
 19 22  1  0  0  0  0
 20 21  2  0  0  0  0
 22 23  1  0  0  0  0
 22 24  1  0  0  0  0
 22 25  1  0  0  0  0
 26 27  1  0  0  0  0
 26 32  2  0  0  0  0
 27 28  2  0  0  0  0
 28 29  1  0  0  0  0
 29 30  1  0  0  0  0
 29 31  2  0  0  0  0
 31 32  1  0  0  0  0
M  CHG  2  29   1  30  -1
M  END
> <Acceptable>
true

> <IC50>
41.5

$$$$

Generated by Molecular Materials Informatics

 32 34  0  0  0  0  0  0  0  0999 V2000
   -4.1569    5.6000    0.0000 F   0  0  0  0  0  0  0  0  0  0  0  0
   -5.5426    4.8000    0.0000 C   0  0  0  0  0  0  0  0  0  0  0  0
   -6.9282    5.6000    0.0000 F   0  0  0  0  0  0  0  0  0  0  0  0
   -5.5426    3.2000    0.0000 O   0  0  0  0  0  0  0  0  0  0  0  0
   -4.1569    2.4000    0.0000 C   0  0  0  0  0  0  0  0  0  0  0  0
   -2.7713    3.2000    0.0000 C   0  0  0  0  0  0  0  0  0  0  0  0
   -1.3856    2.4000    0.0000 C   0  0  0  0  0  0  0  0  0  0  0  0
   -1.3856    0.8000    0.0000 C   0  0  0  0  0  0  0  0  0  0  0  0
   -2.7713    0.0000    0.0000 C   0  0  0  0  0  0  0  0  0  0  0  0
   -4.1569    0.8000    0.0000 C   0  0  0  0  0  0  0  0  0  0  0  0
   -5.5426    0.0000    0.0000 O   0  0  0  0  0  0  0  0  0  0  0  0
   -5.5426   -1.6000    0.0000 C   0  0  0  0  0  0  0  0  0  0  0  0
   -4.1569   -2.4000    0.0000 C   0  0  0  0  0  0  0  0  0  0  0  0
   -6.9282   -2.4000    0.0000 C   0  0  0  0  0  0  0  0  0  0  0  0
    0.0000    0.0000    0.0000 C   0  0  0  0  0  0  0  0  0  0  0  0
    1.3856    0.8000    0.0000 C   0  0  0  0  0  0  0  0  0  0  0  0
    1.3856    2.4000    0.0000 C   0  0  0  0  0  0  0  0  0  0  0  0
    2.7713    3.2000    0.0000 N   0  0  0  0  0  0  0  0  0  0  0  0
    4.1569    2.4000    0.0000 C   0  0  0  0  0  0  0  0  0  0  0  0
    4.1569    0.8000    0.0000 C   0  0  0  0  0  0  0  0  0  0  0  0
    2.7713    0.0000    0.0000 C   0  0  0  0  0  0  0  0  0  0  0  0
    5.5426    3.2000    0.0000 C   0  0  0  0  0  0  0  0  0  0  0  0
    5.5426    4.8000    0.0000 O   0  0  0  0  0  0  0  0  0  0  0  0
    6.9282    2.4000    0.0000 C   0  0  0  0  0  0  0  0  0  0  0  0
    6.9282    4.0000    0.0000 C   0  0  0  0  0  0  0  0  0  0  0  0
    0.0000   -1.6000    0.0000 C   0  0  0  0  0  0  0  0  0  0  0  0
    1.3856   -2.4000    0.0000 C   0  0  0  0  0  0  0  0  0  0  0  0
    1.3856   -4.0000    0.0000 N   0  3  0  0  0  0  0  0  0  0  0  0
    2.7713   -4.8000    0.0000 O   0  5  0  0  0  0  0  0  0  0  0  0
    0.0000   -4.8000    0.0000 C   0  0  0  0  0  0  0  0  0  0  0  0
   -1.3856   -4.0000    0.0000 C   0  0  0  0  0  0  0  0  0  0  0  0
   -1.3856   -2.4000    0.0000 C   0  0  0  0  0  0  0  0  0  0  0  0
  1  2  1  0  0  0  0
  2  3  1  0  0  0  0
  2  4  1  0  0  0  0
  4  5  1  0  0  0  0
  5  6  1  0  0  0  0
  5 10  2  0  0  0  0
  6  7  2  0  0  0  0
  7  8  1  0  0  0  0
  8  9  2  0  0  0  0
  8 15  1  0  0  0  0
  9 10  1  0  0  0  0
 10 11  1  0  0  0  0
 11 12  1  0  0  0  0
 12 13  1  0  0  0  0
 12 14  1  0  0  0  0
 15 16  1  6  0  0  0
 15 26  1  0  0  0  0
 16 17  2  0  0  0  0
 16 21  1  0  0  0  0
 17 18  1  0  0  0  0
 18 19  1  0  0  0  0
 19 20  1  0  0  0  0
 19 22  1  0  0  0  0
 20 21  2  0  0  0  0
 22 23  1  0  0  0  0
 22 24  1  0  0  0  0
 22 25  1  0  0  0  0
 26 27  1  0  0  0  0
 26 32  2  0  0  0  0
 27 28  2  0  0  0  0
 28 29  1  0  0  0  0
 28 30  1  0  0  0  0
 30 31  2  0  0  0  0
 31 32  1  0  0  0  0
M  CHG  2  28   1  29  -1
M  END
> <Acceptable>
true

> <IC50>
42.2

$$$$

Generated by Molecular Materials Informatics

 32 34  0  0  0  0  0  0  0  0999 V2000
   -4.1569    5.6000    0.0000 F   0  0  0  0  0  0  0  0  0  0  0  0
   -5.5426    4.8000    0.0000 C   0  0  0  0  0  0  0  0  0  0  0  0
   -6.9282    5.6000    0.0000 F   0  0  0  0  0  0  0  0  0  0  0  0
   -5.5426    3.2000    0.0000 O   0  0  0  0  0  0  0  0  0  0  0  0
   -4.1569    2.4000    0.0000 C   0  0  0  0  0  0  0  0  0  0  0  0
   -2.7713    3.2000    0.0000 C   0  0  0  0  0  0  0  0  0  0  0  0
   -1.3856    2.4000    0.0000 C   0  0  0  0  0  0  0  0  0  0  0  0
   -1.3856    0.8000    0.0000 C   0  0  0  0  0  0  0  0  0  0  0  0
   -2.7713    0.0000    0.0000 C   0  0  0  0  0  0  0  0  0  0  0  0
   -4.1569    0.8000    0.0000 C   0  0  0  0  0  0  0  0  0  0  0  0
   -5.5426    0.0000    0.0000 O   0  0  0  0  0  0  0  0  0  0  0  0
   -5.5426   -1.6000    0.0000 C   0  0  0  0  0  0  0  0  0  0  0  0
   -4.1569   -2.4000    0.0000 C   0  0  0  0  0  0  0  0  0  0  0  0
   -6.9282   -2.4000    0.0000 C   0  0  0  0  0  0  0  0  0  0  0  0
    0.0000    0.0000    0.0000 C   0  0  0  0  0  0  0  0  0  0  0  0
    1.3856    0.8000    0.0000 C   0  0  0  0  0  0  0  0  0  0  0  0
    1.3856    2.4000    0.0000 C   0  0  0  0  0  0  0  0  0  0  0  0
    2.7713    3.2000    0.0000 N   0  0  0  0  0  0  0  0  0  0  0  0
    4.1569    2.4000    0.0000 C   0  0  0  0  0  0  0  0  0  0  0  0
    4.1569    0.8000    0.0000 C   0  0  0  0  0  0  0  0  0  0  0  0
    2.7713    0.0000    0.0000 C   0  0  0  0  0  0  0  0  0  0  0  0
    5.5426    3.2000    0.0000 C   0  0  0  0  0  0  0  0  0  0  0  0
    5.5426    4.8000    0.0000 O   0  0  0  0  0  0  0  0  0  0  0  0
    6.9282    2.4000    0.0000 C   0  0  0  0  0  0  0  0  0  0  0  0
    6.9282    4.0000    0.0000 C   0  0  0  0  0  0  0  0  0  0  0  0
    0.0000   -1.6000    0.0000 C   0  0  0  0  0  0  0  0  0  0  0  0
    1.3856   -2.4000    0.0000 C   0  0  0  0  0  0  0  0  0  0  0  0
    1.3856   -4.0000    0.0000 N   0  0  0  0  0  0  0  0  0  0  0  0
    0.0000   -4.8000    0.0000 C   0  0  0  0  0  0  0  0  0  0  0  0
    0.0000   -6.4000    0.0000 O   0  0  0  0  0  0  0  0  0  0  0  0
   -1.3856   -4.0000    0.0000 C   0  0  0  0  0  0  0  0  0  0  0  0
   -1.3856   -2.4000    0.0000 C   0  0  0  0  0  0  0  0  0  0  0  0
  1  2  1  0  0  0  0
  2  3  1  0  0  0  0
  2  4  1  0  0  0  0
  4  5  1  0  0  0  0
  5  6  1  0  0  0  0
  5 10  2  0  0  0  0
  6  7  2  0  0  0  0
  7  8  1  0  0  0  0
  8  9  2  0  0  0  0
  8 15  1  0  0  0  0
  9 10  1  0  0  0  0
 10 11  1  0  0  0  0
 11 12  1  0  0  0  0
 12 13  1  0  0  0  0
 12 14  1  0  0  0  0
 15 16  1  6  0  0  0
 15 26  1  0  0  0  0
 16 17  2  0  0  0  0
 16 21  1  0  0  0  0
 17 18  1  0  0  0  0
 18 19  1  0  0  0  0
 19 20  1  0  0  0  0
 19 22  1  0  0  0  0
 20 21  2  0  0  0  0
 22 23  1  0  0  0  0
 22 24  1  0  0  0  0
 22 25  1  0  0  0  0
 26 27  1  0  0  0  0
 26 32  2  0  0  0  0
 27 28  2  0  0  0  0
 28 29  1  0  0  0  0
 29 30  2  0  0  0  0
 29 31  1  0  0  0  0
 31 32  1  0  0  0  0
M  END
> <Acceptable>
true

> <IC50>
55.9

$$$$

Generated by Molecular Materials Informatics

 32 34  0  0  0  0  0  0  0  0999 V2000
   -4.1569    5.6000    0.0000 F   0  0  0  0  0  0  0  0  0  0  0  0
   -5.5426    4.8000    0.0000 C   0  0  0  0  0  0  0  0  0  0  0  0
   -6.9282    5.6000    0.0000 F   0  0  0  0  0  0  0  0  0  0  0  0
   -5.5426    3.2000    0.0000 O   0  0  0  0  0  0  0  0  0  0  0  0
   -4.1569    2.4000    0.0000 C   0  0  0  0  0  0  0  0  0  0  0  0
   -2.7713    3.2000    0.0000 C   0  0  0  0  0  0  0  0  0  0  0  0
   -1.3856    2.4000    0.0000 C   0  0  0  0  0  0  0  0  0  0  0  0
   -1.3856    0.8000    0.0000 C   0  0  0  0  0  0  0  0  0  0  0  0
   -2.7713    0.0000    0.0000 C   0  0  0  0  0  0  0  0  0  0  0  0
   -4.1569    0.8000    0.0000 C   0  0  0  0  0  0  0  0  0  0  0  0
   -5.5426    0.0000    0.0000 O   0  0  0  0  0  0  0  0  0  0  0  0
   -5.5426   -1.6000    0.0000 C   0  0  0  0  0  0  0  0  0  0  0  0
   -4.1569   -2.4000    0.0000 C   0  0  0  0  0  0  0  0  0  0  0  0
   -6.9282   -2.4000    0.0000 C   0  0  0  0  0  0  0  0  0  0  0  0
    0.0000    0.0000    0.0000 C   0  0  0  0  0  0  0  0  0  0  0  0
    1.3856    0.8000    0.0000 C   0  0  0  0  0  0  0  0  0  0  0  0
    1.3856    2.4000    0.0000 C   0  0  0  0  0  0  0  0  0  0  0  0
    2.7713    3.2000    0.0000 N   0  0  0  0  0  0  0  0  0  0  0  0
    4.1569    2.4000    0.0000 C   0  0  0  0  0  0  0  0  0  0  0  0
    4.1569    0.8000    0.0000 C   0  0  0  0  0  0  0  0  0  0  0  0
    2.7713    0.0000    0.0000 C   0  0  0  0  0  0  0  0  0  0  0  0
    5.5426    3.2000    0.0000 C   0  0  0  0  0  0  0  0  0  0  0  0
    5.5426    4.8000    0.0000 O   0  0  0  0  0  0  0  0  0  0  0  0
    6.9282    2.4000    0.0000 C   0  0  0  0  0  0  0  0  0  0  0  0
    6.9282    4.0000    0.0000 C   0  0  0  0  0  0  0  0  0  0  0  0
    0.0000   -1.6000    0.0000 C   0  0  0  0  0  0  0  0  0  0  0  0
    1.3856   -2.4000    0.0000 C   0  0  0  0  0  0  0  0  0  0  0  0
    1.3856   -4.0000    0.0000 N   0  3  0  0  0  0  0  0  0  0  0  0
    2.7713   -4.8000    0.0000 O   0  5  0  0  0  0  0  0  0  0  0  0
    0.0000   -4.8000    0.0000 C   0  0  0  0  0  0  0  0  0  0  0  0
   -1.3856   -4.0000    0.0000 C   0  0  0  0  0  0  0  0  0  0  0  0
   -1.3856   -2.4000    0.0000 C   0  0  0  0  0  0  0  0  0  0  0  0
  1  2  1  0  0  0  0
  2  3  1  0  0  0  0
  2  4  1  0  0  0  0
  4  5  1  0  0  0  0
  5  6  1  0  0  0  0
  5 10  2  0  0  0  0
  6  7  2  0  0  0  0
  7  8  1  0  0  0  0
  8  9  2  0  0  0  0
  8 15  1  0  0  0  0
  9 10  1  0  0  0  0
 10 11  1  0  0  0  0
 11 12  1  0  0  0  0
 12 13  1  0  0  0  0
 12 14  1  0  0  0  0
 15 16  1  0  0  0  0
 15 26  1  1  0  0  0
 16 17  2  0  0  0  0
 16 21  1  0  0  0  0
 17 18  1  0  0  0  0
 18 19  1  0  0  0  0
 19 20  1  0  0  0  0
 19 22  1  0  0  0  0
 20 21  2  0  0  0  0
 22 23  1  0  0  0  0
 22 24  1  0  0  0  0
 22 25  1  0  0  0  0
 26 27  1  0  0  0  0
 26 32  2  0  0  0  0
 27 28  2  0  0  0  0
 28 29  1  0  0  0  0
 28 30  1  0  0  0  0
 30 31  2  0  0  0  0
 31 32  1  0  0  0  0
M  CHG  2  28   1  29  -1
M  END
> <Acceptable>
true

> <IC50>
44.7

$$$$

Generated by Molecular Materials Informatics

 33 35  0  0  0  0  0  0  0  0999 V2000
   -4.1569    5.6000    0.0000 F   0  0  0  0  0  0  0  0  0  0  0  0
   -5.5426    4.8000    0.0000 C   0  0  0  0  0  0  0  0  0  0  0  0
   -6.9282    5.6000    0.0000 F   0  0  0  0  0  0  0  0  0  0  0  0
   -5.5426    3.2000    0.0000 O   0  0  0  0  0  0  0  0  0  0  0  0
   -4.1569    2.4000    0.0000 C   0  0  0  0  0  0  0  0  0  0  0  0
   -2.7713    3.2000    0.0000 C   0  0  0  0  0  0  0  0  0  0  0  0
   -1.3856    2.4000    0.0000 C   0  0  0  0  0  0  0  0  0  0  0  0
   -1.3856    0.8000    0.0000 C   0  0  0  0  0  0  0  0  0  0  0  0
   -2.7713    0.0000    0.0000 C   0  0  0  0  0  0  0  0  0  0  0  0
   -4.1569    0.8000    0.0000 C   0  0  0  0  0  0  0  0  0  0  0  0
   -5.5426    0.0000    0.0000 O   0  0  0  0  0  0  0  0  0  0  0  0
   -5.5426   -1.6000    0.0000 C   0  0  0  0  0  0  0  0  0  0  0  0
   -6.9282   -0.8000    0.0000 C   0  0  0  0  0  0  0  0  0  0  0  0
   -5.5426   -3.2000    0.0000 C   0  0  0  0  0  0  0  0  0  0  0  0
   -6.9282   -2.4000    0.0000 C   0  0  0  0  0  0  0  0  0  0  0  0
    0.0000    0.0000    0.0000 C   0  0  0  0  0  0  0  0  0  0  0  0
    1.3856    0.8000    0.0000 C   0  0  0  0  0  0  0  0  0  0  0  0
    1.3856    2.4000    0.0000 C   0  0  0  0  0  0  0  0  0  0  0  0
    2.7713    3.2000    0.0000 N   0  0  0  0  0  0  0  0  0  0  0  0
    4.1569    2.4000    0.0000 C   0  0  0  0  0  0  0  0  0  0  0  0
    4.1569    0.8000    0.0000 C   0  0  0  0  0  0  0  0  0  0  0  0
    2.7713    0.0000    0.0000 C   0  0  0  0  0  0  0  0  0  0  0  0
    5.5426    3.2000    0.0000 C   0  0  0  0  0  0  0  0  0  0  0  0
    5.5426    4.8000    0.0000 O   0  0  0  0  0  0  0  0  0  0  0  0
    6.9282    2.4000    0.0000 C   0  0  0  0  0  0  0  0  0  0  0  0
    6.9282    4.0000    0.0000 C   0  0  0  0  0  0  0  0  0  0  0  0
    0.0000   -1.6000    0.0000 C   0  0  0  0  0  0  0  0  0  0  0  0
    1.3856   -2.4000    0.0000 C   0  0  0  0  0  0  0  0  0  0  0  0
    1.3856   -4.0000    0.0000 C   0  0  0  0  0  0  0  0  0  0  0  0
    0.0000   -4.8000    0.0000 N   0  3  0  0  0  0  0  0  0  0  0  0
    0.0000   -6.4000    0.0000 O   0  5  0  0  0  0  0  0  0  0  0  0
   -1.3856   -4.0000    0.0000 C   0  0  0  0  0  0  0  0  0  0  0  0
   -1.3856   -2.4000    0.0000 C   0  0  0  0  0  0  0  0  0  0  0  0
  1  2  1  0  0  0  0
  2  3  1  0  0  0  0
  2  4  1  0  0  0  0
  4  5  1  0  0  0  0
  5  6  1  0  0  0  0
  5 10  2  0  0  0  0
  6  7  2  0  0  0  0
  7  8  1  0  0  0  0
  8  9  2  0  0  0  0
 16  8  1  0  0  0  0
  9 10  1  0  0  0  0
 10 11  1  0  0  0  0
 11 12  1  0  0  0  0
 12 13  1  0  0  0  0
 12 14  1  0  0  0  0
 12 15  1  0  0  0  0
 16 17  1  6  0  0  0
 16 27  1  0  0  0  0
 17 18  2  0  0  0  0
 17 22  1  0  0  0  0
 18 19  1  0  0  0  0
 19 20  1  0  0  0  0
 20 21  1  0  0  0  0
 20 23  1  0  0  0  0
 21 22  2  0  0  0  0
 23 24  1  0  0  0  0
 23 25  1  0  0  0  0
 23 26  1  0  0  0  0
 27 28  1  0  0  0  0
 27 33  2  0  0  0  0
 28 29  2  0  0  0  0
 29 30  1  0  0  0  0
 30 31  1  0  0  0  0
 30 32  2  0  0  0  0
 32 33  1  0  0  0  0
M  CHG  2  30   1  31  -1
M  END
> <Acceptable>
false

> <IC50>
25

$$$$

Generated by Molecular Materials Informatics

 28 30  0  0  0  0  0  0  0  0999 V2000
   -5.5426    1.6000    0.0000 F   0  0  0  0  0  0  0  0  0  0  0  0
   -5.5426    0.0000    0.0000 C   0  0  0  0  0  0  0  0  0  0  0  0
   -6.9282   -0.8000    0.0000 F   0  0  0  0  0  0  0  0  0  0  0  0
   -6.9282    0.8000    0.0000 F   0  0  0  0  0  0  0  0  0  0  0  0
   -4.1569   -0.8000    0.0000 C   0  0  0  0  0  0  0  0  0  0  0  0
   -4.1569   -2.4000    0.0000 C   0  0  0  0  0  0  0  0  0  0  0  0
   -2.7713   -3.2000    0.0000 C   0  0  0  0  0  0  0  0  0  0  0  0
   -1.3856   -2.4000    0.0000 C   0  0  0  0  0  0  0  0  0  0  0  0
   -1.3856   -0.8000    0.0000 C   0  0  0  0  0  0  0  0  0  0  0  0
   -2.7713    0.0000    0.0000 C   0  0  0  0  0  0  0  0  0  0  0  0
    0.0000    0.0000    0.0000 C   0  0  0  0  0  0  0  0  0  0  0  0
    1.4617   -0.6508    0.0000 N   0  0  0  0  0  0  0  0  0  0  0  0
    2.5323    0.5383    0.0000 C   0  0  0  0  0  0  0  0  0  0  0  0
    1.7323    1.9239    0.0000 N   0  0  0  0  0  0  0  0  0  0  0  0
    0.1672    1.5912    0.0000 C   0  0  0  0  0  0  0  0  0  0  0  0
    4.1235    0.3710    0.0000 C   0  0  0  0  0  0  0  0  0  0  0  0
    4.7743   -1.0907    0.0000 C   0  0  0  0  0  0  0  0  0  0  0  0
    6.3655   -1.2579    0.0000 C   0  0  0  0  0  0  0  0  0  0  0  0
    7.3060    0.0365    0.0000 C   0  0  0  0  0  0  0  0  0  0  0  0
    6.6552    1.4982    0.0000 C   0  0  0  0  0  0  0  0  0  0  0  0
    5.0640    1.6654    0.0000 C   0  0  0  0  0  0  0  0  0  0  0  0
    8.8972   -0.1307    0.0000 C   0  0  0  0  0  0  0  0  0  0  0  0
    9.5480   -1.5924    0.0000 O   0  0  0  0  0  0  0  0  0  0  0  0
    9.8377    1.1637    0.0000 N   0  0  0  0  0  0  0  0  0  0  0  0
   11.4289    0.9965    0.0000 N   0  0  0  0  0  0  0  0  0  0  0  0
   12.3694    2.2909    0.0000 C   0  0  0  0  0  0  0  0  0  0  0  0
   11.7186    3.7526    0.0000 O   0  0  0  0  0  0  0  0  0  0  0  0
   13.9606    2.1236    0.0000 C   0  0  0  0  0  0  0  0  0  0  0  0
  1  2  1  0  0  0  0
  2  3  1  0  0  0  0
  2  4  1  0  0  0  0
  2  5  1  0  0  0  0
  5  6  1  0  0  0  0
  5 10  2  0  0  0  0
  6  7  2  0  0  0  0
  7  8  1  0  0  0  0
  8  9  2  0  0  0  0
  9 10  1  0  0  0  0
  9 11  1  0  0  0  0
 11 12  1  0  0  0  0
 11 15  2  0  0  0  0
 12 13  2  0  0  0  0
 13 14  1  0  0  0  0
 13 16  1  0  0  0  0
 14 15  1  0  0  0  0
 16 17  1  0  0  0  0
 16 21  1  0  0  0  0
 17 18  1  0  0  0  0
 18 19  1  0  0  0  0
 19 20  1  0  0  0  0
 19 22  1  0  0  0  0
 20 21  1  0  0  0  0
 22 23  2  0  0  0  0
 22 24  1  0  0  0  0
 24 25  1  0  0  0  0
 25 26  1  0  0  0  0
 26 27  2  0  0  0  0
 26 28  1  0  0  0  0
M  END
> <Acceptable>
true

> <IC50>
N/A

$$$$

Generated by Molecular Materials Informatics

 27 29  0  0  0  0  0  0  0  0999 V2000
   -5.5426    1.6000    0.0000 F   0  0  0  0  0  0  0  0  0  0  0  0
   -5.5426    0.0000    0.0000 C   0  0  0  0  0  0  0  0  0  0  0  0
   -6.9282   -0.8000    0.0000 F   0  0  0  0  0  0  0  0  0  0  0  0
   -6.9282    0.8000    0.0000 F   0  0  0  0  0  0  0  0  0  0  0  0
   -4.1569   -0.8000    0.0000 C   0  0  0  0  0  0  0  0  0  0  0  0
   -4.1569   -2.4000    0.0000 C   0  0  0  0  0  0  0  0  0  0  0  0
   -2.7713   -3.2000    0.0000 C   0  0  0  0  0  0  0  0  0  0  0  0
   -1.3856   -2.4000    0.0000 C   0  0  0  0  0  0  0  0  0  0  0  0
   -1.3856   -0.8000    0.0000 C   0  0  0  0  0  0  0  0  0  0  0  0
   -2.7713    0.0000    0.0000 C   0  0  0  0  0  0  0  0  0  0  0  0
    0.0000    0.0000    0.0000 C   0  0  0  0  0  0  0  0  0  0  0  0
    1.4617   -0.6508    0.0000 N   0  0  0  0  0  0  0  0  0  0  0  0
    2.5323    0.5383    0.0000 C   0  0  0  0  0  0  0  0  0  0  0  0
    1.7323    1.9239    0.0000 N   0  0  0  0  0  0  0  0  0  0  0  0
    0.1672    1.5912    0.0000 C   0  0  0  0  0  0  0  0  0  0  0  0
    4.1235    0.3710    0.0000 C   0  0  0  0  0  0  0  0  0  0  0  0
    4.7743   -1.0907    0.0000 C   0  0  0  0  0  0  0  0  0  0  0  0
    6.3655   -1.2579    0.0000 C   0  0  0  0  0  0  0  0  0  0  0  0
    7.3060    0.0365    0.0000 C   0  0  0  0  0  0  0  0  0  0  0  0
    6.6552    1.4982    0.0000 C   0  0  0  0  0  0  0  0  0  0  0  0
    5.0640    1.6654    0.0000 C   0  0  0  0  0  0  0  0  0  0  0  0
    8.8972   -0.1307    0.0000 C   0  0  0  0  0  0  0  0  0  0  0  0
    9.5480   -1.5924    0.0000 O   0  0  0  0  0  0  0  0  0  0  0  0
    9.8377    1.1637    0.0000 N   0  0  0  0  0  0  0  0  0  0  0  0
   11.4289    0.9965    0.0000 C   0  0  0  0  0  0  0  0  0  0  0  0
   12.3694    2.2909    0.0000 C   0  0  0  0  0  0  0  0  0  0  0  0
   13.9606    2.1236    0.0000 O   0  0  0  0  0  0  0  0  0  0  0  0
  1  2  1  0  0  0  0
  2  3  1  0  0  0  0
  2  4  1  0  0  0  0
  2  5  1  0  0  0  0
  5  6  1  0  0  0  0
  5 10  2  0  0  0  0
  6  7  2  0  0  0  0
  7  8  1  0  0  0  0
  8  9  2  0  0  0  0
  9 10  1  0  0  0  0
  9 11  1  0  0  0  0
 11 12  1  0  0  0  0
 11 15  2  0  0  0  0
 12 13  2  0  0  0  0
 13 14  1  0  0  0  0
 13 16  1  0  0  0  0
 14 15  1  0  0  0  0
 16 17  1  0  0  0  0
 16 21  1  0  0  0  0
 17 18  1  0  0  0  0
 18 19  1  0  0  0  0
 19 20  1  0  0  0  0
 19 22  1  0  0  0  0
 20 21  1  0  0  0  0
 22 23  2  0  0  0  0
 22 24  1  0  0  0  0
 24 25  1  0  0  0  0
 25 26  1  0  0  0  0
 26 27  1  0  0  0  0
M  END
> <Acceptable>
false

> <IC50>
<1

$$$$

Generated by Molecular Materials Informatics

 29 31  0  0  0  0  0  0  0  0999 V2000
   -5.5426    1.6000    0.0000 F   0  0  0  0  0  0  0  0  0  0  0  0
   -5.5426    0.0000    0.0000 C   0  0  0  0  0  0  0  0  0  0  0  0
   -6.9282   -0.8000    0.0000 F   0  0  0  0  0  0  0  0  0  0  0  0
   -6.9282    0.8000    0.0000 F   0  0  0  0  0  0  0  0  0  0  0  0
   -4.1569   -0.8000    0.0000 C   0  0  0  0  0  0  0  0  0  0  0  0
   -4.1569   -2.4000    0.0000 C   0  0  0  0  0  0  0  0  0  0  0  0
   -2.7713   -3.2000    0.0000 C   0  0  0  0  0  0  0  0  0  0  0  0
   -1.3856   -2.4000    0.0000 C   0  0  0  0  0  0  0  0  0  0  0  0
   -1.3856   -0.8000    0.0000 C   0  0  0  0  0  0  0  0  0  0  0  0
   -2.7713    0.0000    0.0000 C   0  0  0  0  0  0  0  0  0  0  0  0
    0.0000    0.0000    0.0000 C   0  0  0  0  0  0  0  0  0  0  0  0
    1.4617   -0.6508    0.0000 N   0  0  0  0  0  0  0  0  0  0  0  0
    2.5323    0.5383    0.0000 C   0  0  0  0  0  0  0  0  0  0  0  0
    1.7323    1.9239    0.0000 N   0  0  0  0  0  0  0  0  0  0  0  0
    0.1672    1.5912    0.0000 C   0  0  0  0  0  0  0  0  0  0  0  0
    4.1235    0.3710    0.0000 C   0  0  0  0  0  0  0  0  0  0  0  0
    4.7743   -1.0907    0.0000 C   0  0  0  0  0  0  0  0  0  0  0  0
    6.3655   -1.2579    0.0000 C   0  0  0  0  0  0  0  0  0  0  0  0
    7.3060    0.0365    0.0000 C   0  0  0  0  0  0  0  0  0  0  0  0
    6.6552    1.4982    0.0000 C   0  0  0  0  0  0  0  0  0  0  0  0
    5.0640    1.6654    0.0000 C   0  0  0  0  0  0  0  0  0  0  0  0
    8.8972   -0.1307    0.0000 C   0  0  0  0  0  0  0  0  0  0  0  0
    9.5480   -1.5924    0.0000 O   0  0  0  0  0  0  0  0  0  0  0  0
    9.8377    1.1637    0.0000 N   0  0  0  0  0  0  0  0  0  0  0  0
   11.4289    0.9965    0.0000 C   0  0  0  0  0  0  0  0  0  0  0  0
   12.5895   -0.1049    0.0000 C   0  0  0  0  0  0  0  0  0  0  0  0
   11.4708   -0.6030    0.0000 C   0  0  0  0  0  0  0  0  0  0  0  0
   12.3694    2.2909    0.0000 C   0  0  0  0  0  0  0  0  0  0  0  0
   13.9606    2.1236    0.0000 O   0  0  0  0  0  0  0  0  0  0  0  0
  1  2  1  0  0  0  0
  2  3  1  0  0  0  0
  2  4  1  0  0  0  0
  2  5  1  0  0  0  0
  5  6  1  0  0  0  0
  5 10  2  0  0  0  0
  6  7  2  0  0  0  0
  7  8  1  0  0  0  0
  8  9  2  0  0  0  0
  9 10  1  0  0  0  0
  9 11  1  0  0  0  0
 11 12  1  0  0  0  0
 11 15  2  0  0  0  0
 12 13  2  0  0  0  0
 13 14  1  0  0  0  0
 13 16  1  0  0  0  0
 14 15  1  0  0  0  0
 16 17  1  0  0  0  0
 16 21  1  0  0  0  0
 17 18  1  0  0  0  0
 18 19  1  0  0  0  0
 19 20  1  0  0  0  0
 19 22  1  0  0  0  0
 20 21  1  0  0  0  0
 22 23  2  0  0  0  0
 22 24  1  0  0  0  0
 24 25  1  0  0  0  0
 25 26  1  0  0  0  0
 25 27  1  0  0  0  0
 25 28  1  0  0  0  0
 28 29  1  0  0  0  0
M  END
> <Acceptable>
true

> <IC50>
N/A

$$$$

Generated by Molecular Materials Informatics

 23 26  0  0  0  0  0  0  0  0999 V2000
   -4.7650    2.4386    0.0000 Cl  0  0  0  0  0  0  0  0  0  0  0  0
   -3.9650    1.0530    0.0000 C   0  0  0  0  0  0  0  0  0  0  0  0
   -4.7650   -0.3327    0.0000 C   0  0  0  0  0  0  0  0  0  0  0  0
   -3.9650   -1.7183    0.0000 C   0  0  0  0  0  0  0  0  0  0  0  0
   -2.3650   -1.7183    0.0000 C   0  0  0  0  0  0  0  0  0  0  0  0
   -1.5650   -0.3327    0.0000 C   0  0  0  0  0  0  0  0  0  0  0  0
   -2.3650    1.0530    0.0000 C   0  0  0  0  0  0  0  0  0  0  0  0
   -1.2944    2.2420    0.0000 N   0  0  0  0  0  0  0  0  0  0  0  0
    0.1672    1.5912    0.0000 C   0  0  0  0  0  0  0  0  0  0  0  0
    1.5529    2.3912    0.0000 C   0  0  0  0  0  0  0  0  0  0  0  0
    2.9385    1.5912    0.0000 C   0  0  0  0  0  0  0  0  0  0  0  0
    4.3242    2.3912    0.0000 C   0  0  0  0  0  0  0  0  0  0  0  0
    4.3242    3.9912    0.0000 C   0  0  0  0  0  0  0  0  0  0  0  0
    2.9385    4.7912    0.0000 C   0  0  0  0  0  0  0  0  0  0  0  0
    1.5529    3.9912    0.0000 C   0  0  0  0  0  0  0  0  0  0  0  0
    0.0000    0.0000    0.0000 C   0  0  0  0  0  0  0  0  0  0  0  0
    1.1890   -1.0706    0.0000 C   0  0  0  0  0  0  0  0  0  0  0  0
    2.7107   -0.5762    0.0000 C   0  0  0  0  0  0  0  0  0  0  0  0
    3.8998   -1.6468    0.0000 N   0  0  0  0  0  0  0  0  0  0  0  0
    3.5671   -3.2118    0.0000 C   0  0  0  0  0  0  0  0  0  0  0  0
    2.0454   -3.7063    0.0000 C   0  0  0  0  0  0  0  0  0  0  0  0
    0.8564   -2.6356    0.0000 C   0  0  0  0  0  0  0  0  0  0  0  0
   -0.6653   -3.1301    0.0000 F   0  0  0  0  0  0  0  0  0  0  0  0
  1  2  1  0  0  0  0
  2  3  1  0  0  0  0
  2  7  2  0  0  0  0
  3  4  2  0  0  0  0
  4  5  1  0  0  0  0
  5  6  2  0  0  0  0
  6  7  1  0  0  0  0
  6 16  1  0  0  0  0
  7  8  1  0  0  0  0
  8  9  1  0  0  0  0
  9 10  1  0  0  0  0
  9 16  2  0  0  0  0
 10 11  1  0  0  0  0
 10 15  2  0  0  0  0
 11 12  2  0  0  0  0
 12 13  1  0  0  0  0
 13 14  2  0  0  0  0
 14 15  1  0  0  0  0
 16 17  1  0  0  0  0
 17 18  1  0  0  0  0
 17 22  1  0  0  0  0
 18 19  1  0  0  0  0
 19 20  1  0  0  0  0
 20 21  1  0  0  0  0
 21 22  1  0  0  0  0
 22 23  1  0  0  0  0
M  END
> <Acceptable>
false

> <IC50>
2.1

$$$$

Generated by Molecular Materials Informatics

 30 33  0  0  0  0  0  0  0  0999 V2000
   -6.6546   -2.0871    0.0000 Cl  0  0  0  0  0  0  0  0  0  0  0  0
   -5.0634   -2.2544    0.0000 C   0  0  0  0  0  0  0  0  0  0  0  0
   -4.4126   -3.7160    0.0000 C   0  0  0  0  0  0  0  0  0  0  0  0
   -2.8214   -3.8833    0.0000 C   0  0  0  0  0  0  0  0  0  0  0  0
   -1.8809   -2.5889    0.0000 C   0  0  0  0  0  0  0  0  0  0  0  0
   -2.5317   -1.1272    0.0000 C   0  0  0  0  0  0  0  0  0  0  0  0
   -4.1229   -0.9599    0.0000 C   0  0  0  0  0  0  0  0  0  0  0  0
   -1.5912    0.1672    0.0000 C   0  0  0  0  0  0  0  0  0  0  0  0
    0.0000    0.0000    0.0000 N   0  0  0  0  0  0  0  0  0  0  0  0
    0.8000   -1.3856    0.0000 C   0  0  0  0  0  0  0  0  0  0  0  0
    2.3650   -1.0530    0.0000 C   0  0  0  0  0  0  0  0  0  0  0  0
    2.5323    0.5383    0.0000 C   0  0  0  0  0  0  0  0  0  0  0  0
    3.9179    1.3383    0.0000 N   0  0  0  0  0  0  0  0  0  0  0  0
    5.3036    0.5383    0.0000 C   0  0  0  0  0  0  0  0  0  0  0  0
    6.6892    1.3383    0.0000 C   0  0  0  0  0  0  0  0  0  0  0  0
    8.1509    0.6875    0.0000 N   0  0  0  0  0  0  0  0  0  0  0  0
    9.2215    1.8765    0.0000 C   0  0  0  0  0  0  0  0  0  0  0  0
    8.4215    3.2621    0.0000 N   0  0  0  0  0  0  0  0  0  0  0  0
    6.8565    2.9295    0.0000 C   0  0  0  0  0  0  0  0  0  0  0  0
    8.4835   -0.8776    0.0000 C   0  0  0  0  0  0  0  0  0  0  0  0
   10.0052   -1.3720    0.0000 C   0  0  0  0  0  0  0  0  0  0  0  0
   10.3379   -2.9370    0.0000 C   0  0  0  0  0  0  0  0  0  0  0  0
   11.8596   -3.4315    0.0000 C   0  0  0  0  0  0  0  0  0  0  0  0
   13.0486   -2.3608    0.0000 C   0  0  0  0  0  0  0  0  0  0  0  0
   14.5703   -2.8553    0.0000 C   0  0  0  0  0  0  0  0  0  0  0  0
   16.0920   -3.3497    0.0000 N   0  0  0  0  0  0  0  0  0  0  0  0
   12.7159   -0.7958    0.0000 C   0  0  0  0  0  0  0  0  0  0  0  0
   11.1943   -0.3014    0.0000 C   0  0  0  0  0  0  0  0  0  0  0  0
    1.0706    1.1890    0.0000 C   0  0  0  0  0  0  0  0  0  0  0  0
    0.7380    2.7541    0.0000 O   0  0  0  0  0  0  0  0  0  0  0  0
  1  2  1  0  0  0  0
  2  3  1  0  0  0  0
  2  7  2  0  0  0  0
  3  4  2  0  0  0  0
  4  5  1  0  0  0  0
  5  6  2  0  0  0  0
  6  7  1  0  0  0  0
  6  8  1  0  0  0  0
  8  9  1  0  0  0  0
  9 10  1  0  0  0  0
  9 29  1  0  0  0  0
 10 11  1  0  0  0  0
 11 12  1  0  0  0  0
 12 13  1  0  0  0  0
 12 29  1  0  0  0  0
 13 14  1  0  0  0  0
 14 15  1  0  0  0  0
 15 16  1  0  0  0  0
 15 19  2  0  0  0  0
 16 17  1  0  0  0  0
 16 20  1  0  0  0  0
 17 18  2  0  0  0  0
 18 19  1  0  0  0  0
 20 21  1  0  0  0  0
 21 22  1  0  0  0  0
 21 28  2  0  0  0  0
 22 23  2  0  0  0  0
 23 24  1  0  0  0  0
 24 25  1  0  0  0  0
 24 27  2  0  0  0  0
 25 26  3  0  0  0  0
 27 28  1  0  0  0  0
 29 30  2  0  0  0  0
M  END
> <Acceptable>
false

> <IC50>
0.44

$$$$

Generated by Molecular Materials Informatics

 38 42  0  0  0  0  0  0  0  0999 V2000
   -9.1869   -2.6254    0.0000 Cl  0  0  0  0  0  0  0  0  0  0  0  0
   -7.5957   -2.7926    0.0000 C   0  0  0  0  0  0  0  0  0  0  0  0
   -6.9449   -4.2543    0.0000 C   0  0  0  0  0  0  0  0  0  0  0  0
   -5.3537   -4.4215    0.0000 C   0  0  0  0  0  0  0  0  0  0  0  0
   -4.4132   -3.1271    0.0000 C   0  0  0  0  0  0  0  0  0  0  0  0
   -5.0640   -1.6654    0.0000 C   0  0  0  0  0  0  0  0  0  0  0  0
   -6.6552   -1.4982    0.0000 C   0  0  0  0  0  0  0  0  0  0  0  0
   -4.1235   -0.3710    0.0000 C   0  0  0  0  0  0  0  0  0  0  0  0
   -2.5323   -0.5383    0.0000 N   0  0  0  0  0  0  0  0  0  0  0  0
   -1.7323   -1.9239    0.0000 C   0  0  0  0  0  0  0  0  0  0  0  0
   -0.1672   -1.5912    0.0000 C   0  0  0  0  0  0  0  0  0  0  0  0
    0.0000    0.0000    0.0000 C   0  0  0  0  0  0  0  0  0  0  0  0
    1.3856    0.8000    0.0000 N   0  0  0  0  0  0  0  0  0  0  0  0
    1.3856    2.4000    0.0000 C   0  0  0  0  0  0  0  0  0  0  0  0
    2.7713    3.2000    0.0000 C   0  0  0  0  0  0  0  0  0  0  0  0
    2.7713    4.8000    0.0000 N   0  0  0  0  0  0  0  0  0  0  0  0
    4.1569    5.6000    0.0000 C   0  0  0  0  0  0  0  0  0  0  0  0
    4.1569    7.2000    0.0000 C   0  0  0  0  0  0  0  0  0  0  0  0
    2.7713    8.0000    0.0000 O   0  0  0  0  0  0  0  0  0  0  0  0
    1.3856    7.2000    0.0000 C   0  0  0  0  0  0  0  0  0  0  0  0
    1.3856    5.6000    0.0000 C   0  0  0  0  0  0  0  0  0  0  0  0
    2.7713    0.0000    0.0000 C   0  0  0  0  0  0  0  0  0  0  0  0
    4.1569    0.8000    0.0000 C   0  0  0  0  0  0  0  0  0  0  0  0
    5.6186    0.1492    0.0000 N   0  0  0  0  0  0  0  0  0  0  0  0
    6.6892    1.3383    0.0000 C   0  0  0  0  0  0  0  0  0  0  0  0
    5.8892    2.7239    0.0000 N   0  0  0  0  0  0  0  0  0  0  0  0
    4.3242    2.3912    0.0000 C   0  0  0  0  0  0  0  0  0  0  0  0
    5.9513   -1.4158    0.0000 C   0  0  0  0  0  0  0  0  0  0  0  0
    7.4729   -1.9102    0.0000 C   0  0  0  0  0  0  0  0  0  0  0  0
    7.8056   -3.4753    0.0000 C   0  0  0  0  0  0  0  0  0  0  0  0
    9.3273   -3.9697    0.0000 C   0  0  0  0  0  0  0  0  0  0  0  0
   10.5163   -2.8991    0.0000 C   0  0  0  0  0  0  0  0  0  0  0  0
   12.0380   -3.3935    0.0000 C   0  0  0  0  0  0  0  0  0  0  0  0
   13.5597   -3.8880    0.0000 N   0  0  0  0  0  0  0  0  0  0  0  0
   10.1837   -1.3341    0.0000 C   0  0  0  0  0  0  0  0  0  0  0  0
    8.6620   -0.8396    0.0000 C   0  0  0  0  0  0  0  0  0  0  0  0
   -1.4617    0.6508    0.0000 C   0  0  0  0  0  0  0  0  0  0  0  0
   -1.7943    2.2158    0.0000 O   0  0  0  0  0  0  0  0  0  0  0  0
  1  2  1  0  0  0  0
  2  3  1  0  0  0  0
  2  7  2  0  0  0  0
  3  4  2  0  0  0  0
  4  5  1  0  0  0  0
  5  6  2  0  0  0  0
  6  7  1  0  0  0  0
  6  8  1  0  0  0  0
  8  9  1  0  0  0  0
  9 10  1  0  0  0  0
  9 37  1  0  0  0  0
 10 11  1  0  0  0  0
 11 12  1  0  0  0  0
 12 13  1  0  0  0  0
 12 37  1  0  0  0  0
 13 14  1  0  0  0  0
 13 22  1  0  0  0  0
 14 15  1  0  0  0  0
 15 16  1  0  0  0  0
 16 17  1  0  0  0  0
 16 21  1  0  0  0  0
 17 18  1  0  0  0  0
 18 19  1  0  0  0  0
 19 20  1  0  0  0  0
 20 21  1  0  0  0  0
 22 23  1  0  0  0  0
 23 24  1  0  0  0  0
 23 27  2  0  0  0  0
 24 25  1  0  0  0  0
 24 28  1  0  0  0  0
 25 26  2  0  0  0  0
 26 27  1  0  0  0  0
 28 29  1  0  0  0  0
 29 30  1  0  0  0  0
 29 36  2  0  0  0  0
 30 31  2  0  0  0  0
 31 32  1  0  0  0  0
 32 33  1  0  0  0  0
 32 35  2  0  0  0  0
 33 34  3  0  0  0  0
 35 36  1  0  0  0  0
 37 38  2  0  0  0  0
M  END
> <Acceptable>
false

> <IC50>
0.19

$$$$

Generated by Molecular Materials Informatics

 38 42  0  0  0  0  0  0  0  0999 V2000
   -9.1869   -2.6254    0.0000 Cl  0  0  0  0  0  0  0  0  0  0  0  0
   -7.5957   -2.7926    0.0000 C   0  0  0  0  0  0  0  0  0  0  0  0
   -6.9449   -4.2543    0.0000 C   0  0  0  0  0  0  0  0  0  0  0  0
   -5.3537   -4.4215    0.0000 C   0  0  0  0  0  0  0  0  0  0  0  0
   -4.4132   -3.1271    0.0000 C   0  0  0  0  0  0  0  0  0  0  0  0
   -5.0640   -1.6654    0.0000 C   0  0  0  0  0  0  0  0  0  0  0  0
   -6.6552   -1.4982    0.0000 C   0  0  0  0  0  0  0  0  0  0  0  0
   -4.1235   -0.3710    0.0000 C   0  0  0  0  0  0  0  0  0  0  0  0
   -2.5323   -0.5383    0.0000 N   0  0  0  0  0  0  0  0  0  0  0  0
   -1.7323   -1.9239    0.0000 C   0  0  0  0  0  0  0  0  0  0  0  0
   -0.1672   -1.5912    0.0000 C   0  0  0  0  0  0  0  0  0  0  0  0
    0.0000    0.0000    0.0000 C   0  0  0  0  0  0  0  0  0  0  0  0
    1.3856    0.8000    0.0000 N   0  0  0  0  0  0  0  0  0  0  0  0
    1.3856    2.4000    0.0000 C   0  0  0  0  0  0  0  0  0  0  0  0
    2.7713    3.2000    0.0000 C   0  0  0  0  0  0  0  0  0  0  0  0
    2.7713    4.8000    0.0000 N   0  0  0  0  0  0  0  0  0  0  0  0
    4.1569    5.6000    0.0000 C   0  0  0  0  0  0  0  0  0  0  0  0
    4.1569    7.2000    0.0000 C   0  0  0  0  0  0  0  0  0  0  0  0
    2.7713    8.0000    0.0000 N   0  0  0  0  0  0  0  0  0  0  0  0
    1.3856    7.2000    0.0000 C   0  0  0  0  0  0  0  0  0  0  0  0
    1.3856    5.6000    0.0000 C   0  0  0  0  0  0  0  0  0  0  0  0
    2.7713    0.0000    0.0000 C   0  0  0  0  0  0  0  0  0  0  0  0
    4.1569    0.8000    0.0000 C   0  0  0  0  0  0  0  0  0  0  0  0
    5.6186    0.1492    0.0000 N   0  0  0  0  0  0  0  0  0  0  0  0
    6.6892    1.3383    0.0000 C   0  0  0  0  0  0  0  0  0  0  0  0
    5.8892    2.7239    0.0000 N   0  0  0  0  0  0  0  0  0  0  0  0
    4.3242    2.3912    0.0000 C   0  0  0  0  0  0  0  0  0  0  0  0
    5.9513   -1.4158    0.0000 C   0  0  0  0  0  0  0  0  0  0  0  0
    7.4729   -1.9102    0.0000 C   0  0  0  0  0  0  0  0  0  0  0  0
    7.8056   -3.4753    0.0000 C   0  0  0  0  0  0  0  0  0  0  0  0
    9.3273   -3.9697    0.0000 C   0  0  0  0  0  0  0  0  0  0  0  0
   10.5163   -2.8991    0.0000 C   0  0  0  0  0  0  0  0  0  0  0  0
   12.0380   -3.3935    0.0000 C   0  0  0  0  0  0  0  0  0  0  0  0
   13.5597   -3.8880    0.0000 N   0  0  0  0  0  0  0  0  0  0  0  0
   10.1837   -1.3341    0.0000 C   0  0  0  0  0  0  0  0  0  0  0  0
    8.6620   -0.8396    0.0000 C   0  0  0  0  0  0  0  0  0  0  0  0
   -1.4617    0.6508    0.0000 C   0  0  0  0  0  0  0  0  0  0  0  0
   -1.7943    2.2158    0.0000 O   0  0  0  0  0  0  0  0  0  0  0  0
  1  2  1  0  0  0  0
  2  3  1  0  0  0  0
  2  7  2  0  0  0  0
  3  4  2  0  0  0  0
  4  5  1  0  0  0  0
  5  6  2  0  0  0  0
  6  7  1  0  0  0  0
  6  8  1  0  0  0  0
  8  9  1  0  0  0  0
  9 10  1  0  0  0  0
  9 37  1  0  0  0  0
 10 11  1  0  0  0  0
 11 12  1  0  0  0  0
 12 13  1  0  0  0  0
 12 37  1  0  0  0  0
 13 14  1  0  0  0  0
 13 22  1  0  0  0  0
 14 15  1  0  0  0  0
 15 16  1  0  0  0  0
 16 17  1  0  0  0  0
 16 21  1  0  0  0  0
 17 18  1  0  0  0  0
 18 19  1  0  0  0  0
 19 20  1  0  0  0  0
 20 21  1  0  0  0  0
 22 23  1  0  0  0  0
 23 24  1  0  0  0  0
 23 27  2  0  0  0  0
 24 25  1  0  0  0  0
 24 28  1  0  0  0  0
 25 26  2  0  0  0  0
 26 27  1  0  0  0  0
 28 29  1  0  0  0  0
 29 30  1  0  0  0  0
 29 36  2  0  0  0  0
 30 31  2  0  0  0  0
 31 32  1  0  0  0  0
 32 33  1  0  0  0  0
 32 35  2  0  0  0  0
 33 34  3  0  0  0  0
 35 36  1  0  0  0  0
 37 38  2  0  0  0  0
M  END
> <Acceptable>
false

> <IC50>
1.1

$$$$

Generated by Molecular Materials Informatics

 39 43  0  0  0  0  0  0  0  0999 V2000
   -9.1869   -2.6254    0.0000 Cl  0  0  0  0  0  0  0  0  0  0  0  0
   -7.5957   -2.7926    0.0000 C   0  0  0  0  0  0  0  0  0  0  0  0
   -6.9449   -4.2543    0.0000 C   0  0  0  0  0  0  0  0  0  0  0  0
   -5.3537   -4.4215    0.0000 C   0  0  0  0  0  0  0  0  0  0  0  0
   -4.4132   -3.1271    0.0000 C   0  0  0  0  0  0  0  0  0  0  0  0
   -5.0640   -1.6654    0.0000 C   0  0  0  0  0  0  0  0  0  0  0  0
   -6.6552   -1.4982    0.0000 C   0  0  0  0  0  0  0  0  0  0  0  0
   -4.1235   -0.3710    0.0000 C   0  0  0  0  0  0  0  0  0  0  0  0
   -2.5323   -0.5383    0.0000 N   0  0  0  0  0  0  0  0  0  0  0  0
   -1.7323   -1.9239    0.0000 C   0  0  0  0  0  0  0  0  0  0  0  0
   -0.1672   -1.5912    0.0000 C   0  0  0  0  0  0  0  0  0  0  0  0
    0.0000    0.0000    0.0000 C   0  0  0  0  0  0  0  0  0  0  0  0
    1.3856    0.8000    0.0000 N   0  0  0  0  0  0  0  0  0  0  0  0
    1.3856    2.4000    0.0000 C   0  0  0  0  0  0  0  0  0  0  0  0
    2.7713    3.2000    0.0000 C   0  0  0  0  0  0  0  0  0  0  0  0
    2.7713    4.8000    0.0000 C   0  0  0  0  0  0  0  0  0  0  0  0
    1.3856    5.6000    0.0000 C   0  0  0  0  0  0  0  0  0  0  0  0
    1.3856    7.2000    0.0000 C   0  0  0  0  0  0  0  0  0  0  0  0
    0.0000    8.0000    0.0000 C   0  0  0  0  0  0  0  0  0  0  0  0
   -1.3856    7.2000    0.0000 C   0  0  0  0  0  0  0  0  0  0  0  0
   -1.3856    5.6000    0.0000 C   0  0  0  0  0  0  0  0  0  0  0  0
    0.0000    4.8000    0.0000 C   0  0  0  0  0  0  0  0  0  0  0  0
    2.7713    0.0000    0.0000 C   0  0  0  0  0  0  0  0  0  0  0  0
    4.1569    0.8000    0.0000 C   0  0  0  0  0  0  0  0  0  0  0  0
    5.6186    0.1492    0.0000 N   0  0  0  0  0  0  0  0  0  0  0  0
    6.6892    1.3383    0.0000 C   0  0  0  0  0  0  0  0  0  0  0  0
    5.8892    2.7239    0.0000 N   0  0  0  0  0  0  0  0  0  0  0  0
    4.3242    2.3912    0.0000 C   0  0  0  0  0  0  0  0  0  0  0  0
    5.9513   -1.4158    0.0000 C   0  0  0  0  0  0  0  0  0  0  0  0
    7.4729   -1.9102    0.0000 C   0  0  0  0  0  0  0  0  0  0  0  0
    7.8056   -3.4753    0.0000 C   0  0  0  0  0  0  0  0  0  0  0  0
    9.3273   -3.9697    0.0000 C   0  0  0  0  0  0  0  0  0  0  0  0
   10.5163   -2.8991    0.0000 C   0  0  0  0  0  0  0  0  0  0  0  0
   12.0380   -3.3935    0.0000 C   0  0  0  0  0  0  0  0  0  0  0  0
   13.5597   -3.8880    0.0000 N   0  0  0  0  0  0  0  0  0  0  0  0
   10.1837   -1.3341    0.0000 C   0  0  0  0  0  0  0  0  0  0  0  0
    8.6620   -0.8396    0.0000 C   0  0  0  0  0  0  0  0  0  0  0  0
   -1.4617    0.6508    0.0000 C   0  0  0  0  0  0  0  0  0  0  0  0
   -1.7943    2.2158    0.0000 O   0  0  0  0  0  0  0  0  0  0  0  0
  1  2  1  0  0  0  0
  2  3  1  0  0  0  0
  2  7  2  0  0  0  0
  3  4  2  0  0  0  0
  4  5  1  0  0  0  0
  5  6  2  0  0  0  0
  6  7  1  0  0  0  0
  6  8  1  0  0  0  0
  8  9  1  0  0  0  0
  9 10  1  0  0  0  0
  9 38  1  0  0  0  0
 10 11  1  0  0  0  0
 11 12  1  0  0  0  0
 12 13  1  0  0  0  0
 12 38  1  0  0  0  0
 13 14  1  0  0  0  0
 13 23  1  0  0  0  0
 14 15  1  0  0  0  0
 15 16  1  0  0  0  0
 16 17  1  0  0  0  0
 17 18  1  0  0  0  0
 17 22  2  0  0  0  0
 18 19  2  0  0  0  0
 19 20  1  0  0  0  0
 20 21  2  0  0  0  0
 21 22  1  0  0  0  0
 23 24  1  0  0  0  0
 24 25  1  0  0  0  0
 24 28  2  0  0  0  0
 25 26  1  0  0  0  0
 25 29  1  0  0  0  0
 26 27  2  0  0  0  0
 27 28  1  0  0  0  0
 29 30  1  0  0  0  0
 30 31  1  0  0  0  0
 30 37  2  0  0  0  0
 31 32  2  0  0  0  0
 32 33  1  0  0  0  0
 33 34  1  0  0  0  0
 33 36  2  0  0  0  0
 34 35  3  0  0  0  0
 36 37  1  0  0  0  0
 38 39  2  0  0  0  0
M  END
> <Acceptable>
false

> <IC50>
0.024

$$$$

Generated by Molecular Materials Informatics

 41 44  0  0  0  0  0  0  0  0999 V2000
   -6.6434    6.8671    0.0000 Cl  0  0  0  0  0  0  0  0  0  0  0  0
   -5.1817    6.2163    0.0000 C   0  0  0  0  0  0  0  0  0  0  0  0
   -3.8873    7.1568    0.0000 C   0  0  0  0  0  0  0  0  0  0  0  0
   -2.4256    6.5060    0.0000 C   0  0  0  0  0  0  0  0  0  0  0  0
   -2.2584    4.9148    0.0000 C   0  0  0  0  0  0  0  0  0  0  0  0
   -3.5528    3.9743    0.0000 C   0  0  0  0  0  0  0  0  0  0  0  0
   -5.0145    4.6251    0.0000 C   0  0  0  0  0  0  0  0  0  0  0  0
   -3.3856    2.3831    0.0000 C   0  0  0  0  0  0  0  0  0  0  0  0
   -1.9239    1.7323    0.0000 N   0  0  0  0  0  0  0  0  0  0  0  0
   -0.5383    2.5323    0.0000 C   0  0  0  0  0  0  0  0  0  0  0  0
    0.6508    1.4617    0.0000 C   0  0  0  0  0  0  0  0  0  0  0  0
    0.0000    0.0000    0.0000 C   0  0  0  0  0  0  0  0  0  0  0  0
    0.8000   -1.3856    0.0000 N   0  0  0  0  0  0  0  0  0  0  0  0
    0.0000   -2.7713    0.0000 C   0  0  0  0  0  0  0  0  0  0  0  0
    0.8000   -4.1569    0.0000 C   0  0  0  0  0  0  0  0  0  0  0  0
    0.0000   -5.5426    0.0000 C   0  0  0  0  0  0  0  0  0  0  0  0
   -1.6000   -5.5426    0.0000 N   0  0  0  0  0  0  0  0  0  0  0  0
   -2.4000   -6.9282    0.0000 C   0  0  0  0  0  0  0  0  0  0  0  0
   -1.6000   -8.3138    0.0000 O   0  0  0  0  0  0  0  0  0  0  0  0
   -4.0000   -6.9282    0.0000 O   0  0  0  0  0  0  0  0  0  0  0  0
   -4.8000   -8.3138    0.0000 C   0  0  0  0  0  0  0  0  0  0  0  0
   -4.0000   -9.6995    0.0000 C   0  0  0  0  0  0  0  0  0  0  0  0
   -6.4000   -8.3138    0.0000 C   0  0  0  0  0  0  0  0  0  0  0  0
   -5.6000   -9.6995    0.0000 C   0  0  0  0  0  0  0  0  0  0  0  0
    2.4000   -1.3856    0.0000 C   0  0  0  0  0  0  0  0  0  0  0  0
    3.2000   -2.7713    0.0000 C   0  0  0  0  0  0  0  0  0  0  0  0
    4.7912   -2.9385    0.0000 N   0  0  0  0  0  0  0  0  0  0  0  0
    5.1239   -4.5036    0.0000 C   0  0  0  0  0  0  0  0  0  0  0  0
    3.7383   -5.3036    0.0000 N   0  0  0  0  0  0  0  0  0  0  0  0
    2.5492   -4.2330    0.0000 C   0  0  0  0  0  0  0  0  0  0  0  0
    5.8618   -1.7495    0.0000 C   0  0  0  0  0  0  0  0  0  0  0  0
    7.4269   -2.0822    0.0000 C   0  0  0  0  0  0  0  0  0  0  0  0
    8.4975   -0.8931    0.0000 C   0  0  0  0  0  0  0  0  0  0  0  0
   10.0625   -1.2258    0.0000 C   0  0  0  0  0  0  0  0  0  0  0  0
   10.5570   -2.7475    0.0000 C   0  0  0  0  0  0  0  0  0  0  0  0
   12.1220   -3.0801    0.0000 C   0  0  0  0  0  0  0  0  0  0  0  0
   13.6870   -3.4128    0.0000 N   0  0  0  0  0  0  0  0  0  0  0  0
    9.4863   -3.9365    0.0000 C   0  0  0  0  0  0  0  0  0  0  0  0
    7.9213   -3.6038    0.0000 C   0  0  0  0  0  0  0  0  0  0  0  0
   -1.5912    0.1672    0.0000 C   0  0  0  0  0  0  0  0  0  0  0  0
   -2.6618   -1.0218    0.0000 O   0  0  0  0  0  0  0  0  0  0  0  0
  1  2  1  0  0  0  0
  2  3  1  0  0  0  0
  2  7  2  0  0  0  0
  3  4  2  0  0  0  0
  4  5  1  0  0  0  0
  5  6  2  0  0  0  0
  6  7  1  0  0  0  0
  6  8  1  0  0  0  0
  8  9  1  0  0  0  0
  9 10  1  0  0  0  0
  9 40  1  0  0  0  0
 10 11  1  0  0  0  0
 11 12  1  0  0  0  0
 12 13  1  0  0  0  0
 12 40  1  0  0  0  0
 13 14  1  0  0  0  0
 13 25  1  0  0  0  0
 14 15  1  0  0  0  0
 15 16  1  0  0  0  0
 16 17  1  0  0  0  0
 17 18  1  0  0  0  0
 18 19  2  0  0  0  0
 18 20  1  0  0  0  0
 20 21  1  0  0  0  0
 21 22  1  0  0  0  0
 21 23  1  0  0  0  0
 21 24  1  0  0  0  0
 25 26  1  0  0  0  0
 26 27  1  0  0  0  0
 26 30  2  0  0  0  0
 27 28  1  0  0  0  0
 27 31  1  0  0  0  0
 28 29  2  0  0  0  0
 29 30  1  0  0  0  0
 31 32  1  0  0  0  0
 32 33  1  0  0  0  0
 32 39  2  0  0  0  0
 33 34  2  0  0  0  0
 34 35  1  0  0  0  0
 35 36  1  0  0  0  0
 35 38  2  0  0  0  0
 36 37  3  0  0  0  0
 38 39  1  0  0  0  0
 40 41  2  0  0  0  0
M  END
> <Acceptable>
false

> <IC50>
0.11

$$$$

Generated by Molecular Materials Informatics

 34 37  0  0  0  0  0  0  0  0999 V2000
   -9.1869   -2.6254    0.0000 Cl  0  0  0  0  0  0  0  0  0  0  0  0
   -7.5957   -2.7926    0.0000 C   0  0  0  0  0  0  0  0  0  0  0  0
   -6.9449   -4.2543    0.0000 C   0  0  0  0  0  0  0  0  0  0  0  0
   -5.3537   -4.4215    0.0000 C   0  0  0  0  0  0  0  0  0  0  0  0
   -4.4132   -3.1271    0.0000 C   0  0  0  0  0  0  0  0  0  0  0  0
   -5.0640   -1.6654    0.0000 C   0  0  0  0  0  0  0  0  0  0  0  0
   -6.6552   -1.4982    0.0000 C   0  0  0  0  0  0  0  0  0  0  0  0
   -4.1235   -0.3710    0.0000 C   0  0  0  0  0  0  0  0  0  0  0  0
   -2.5323   -0.5383    0.0000 N   0  0  0  0  0  0  0  0  0  0  0  0
   -1.7323   -1.9239    0.0000 C   0  0  0  0  0  0  0  0  0  0  0  0
   -0.1672   -1.5912    0.0000 C   0  0  0  0  0  0  0  0  0  0  0  0
    0.0000    0.0000    0.0000 C   0  0  0  0  0  0  0  0  0  0  0  0
    1.3856    0.8000    0.0000 N   0  0  0  0  0  0  0  0  0  0  0  0
    1.3856    2.4000    0.0000 C   0  0  0  0  0  0  0  0  0  0  0  0
    2.7713    3.2000    0.0000 C   0  0  0  0  0  0  0  0  0  0  0  0
    2.7713    4.8000    0.0000 C   0  0  0  0  0  0  0  0  0  0  0  0
    1.3856    5.6000    0.0000 N   0  0  0  0  0  0  0  0  0  0  0  0
    2.7713    0.0000    0.0000 C   0  0  0  0  0  0  0  0  0  0  0  0
    4.1569    0.8000    0.0000 C   0  0  0  0  0  0  0  0  0  0  0  0
    5.6186    0.1492    0.0000 N   0  0  0  0  0  0  0  0  0  0  0  0
    6.6892    1.3383    0.0000 C   0  0  0  0  0  0  0  0  0  0  0  0
    5.8892    2.7239    0.0000 N   0  0  0  0  0  0  0  0  0  0  0  0
    4.3242    2.3912    0.0000 C   0  0  0  0  0  0  0  0  0  0  0  0
    5.9513   -1.4158    0.0000 C   0  0  0  0  0  0  0  0  0  0  0  0
    7.4729   -1.9102    0.0000 C   0  0  0  0  0  0  0  0  0  0  0  0
    7.8056   -3.4753    0.0000 C   0  0  0  0  0  0  0  0  0  0  0  0
    9.3273   -3.9697    0.0000 C   0  0  0  0  0  0  0  0  0  0  0  0
   10.5163   -2.8991    0.0000 C   0  0  0  0  0  0  0  0  0  0  0  0
   12.0380   -3.3935    0.0000 C   0  0  0  0  0  0  0  0  0  0  0  0
   13.5597   -3.8880    0.0000 N   0  0  0  0  0  0  0  0  0  0  0  0
   10.1837   -1.3341    0.0000 C   0  0  0  0  0  0  0  0  0  0  0  0
    8.6620   -0.8396    0.0000 C   0  0  0  0  0  0  0  0  0  0  0  0
   -1.4617    0.6508    0.0000 C   0  0  0  0  0  0  0  0  0  0  0  0
   -1.7943    2.2158    0.0000 O   0  0  0  0  0  0  0  0  0  0  0  0
  1  2  1  0  0  0  0
  2  3  1  0  0  0  0
  2  7  2  0  0  0  0
  3  4  2  0  0  0  0
  4  5  1  0  0  0  0
  5  6  2  0  0  0  0
  6  7  1  0  0  0  0
  6  8  1  0  0  0  0
  8  9  1  0  0  0  0
  9 10  1  0  0  0  0
  9 33  1  0  0  0  0
 10 11  1  0  0  0  0
 11 12  1  0  0  0  0
 12 13  1  0  0  0  0
 12 33  1  0  0  0  0
 13 14  1  0  0  0  0
 13 18  1  0  0  0  0
 14 15  1  0  0  0  0
 15 16  1  0  0  0  0
 16 17  1  0  0  0  0
 18 19  1  0  0  0  0
 19 20  1  0  0  0  0
 19 23  2  0  0  0  0
 20 21  1  0  0  0  0
 20 24  1  0  0  0  0
 21 22  2  0  0  0  0
 22 23  1  0  0  0  0
 24 25  1  0  0  0  0
 25 26  1  0  0  0  0
 25 32  2  0  0  0  0
 26 27  2  0  0  0  0
 27 28  1  0  0  0  0
 28 29  1  0  0  0  0
 28 31  2  0  0  0  0
 29 30  3  0  0  0  0
 31 32  1  0  0  0  0
 33 34  2  0  0  0  0
M  END
> <Acceptable>
false

> <IC50>
0.48

$$$$

Generated by Molecular Materials Informatics

 31 34  0  0  0  0  0  0  0  0999 V2000
   -6.6546   -2.0871    0.0000 Cl  0  0  0  0  0  0  0  0  0  0  0  0
   -5.0634   -2.2544    0.0000 C   0  0  0  0  0  0  0  0  0  0  0  0
   -4.4126   -3.7160    0.0000 C   0  0  0  0  0  0  0  0  0  0  0  0
   -2.8214   -3.8833    0.0000 C   0  0  0  0  0  0  0  0  0  0  0  0
   -1.8809   -2.5889    0.0000 C   0  0  0  0  0  0  0  0  0  0  0  0
   -2.5317   -1.1272    0.0000 C   0  0  0  0  0  0  0  0  0  0  0  0
   -4.1229   -0.9599    0.0000 C   0  0  0  0  0  0  0  0  0  0  0  0
   -1.5912    0.1672    0.0000 C   0  0  0  0  0  0  0  0  0  0  0  0
   -2.2420    1.6289    0.0000 O   0  0  0  0  0  0  0  0  0  0  0  0
    0.0000    0.0000    0.0000 N   0  0  0  0  0  0  0  0  0  0  0  0
    0.8000   -1.3856    0.0000 C   0  0  0  0  0  0  0  0  0  0  0  0
    2.3650   -1.0530    0.0000 C   0  0  0  0  0  0  0  0  0  0  0  0
    2.5323    0.5383    0.0000 C   0  0  0  0  0  0  0  0  0  0  0  0
    3.9179    1.3383    0.0000 N   0  0  0  0  0  0  0  0  0  0  0  0
    5.3036    0.5383    0.0000 C   0  0  0  0  0  0  0  0  0  0  0  0
    6.6892    1.3383    0.0000 C   0  0  0  0  0  0  0  0  0  0  0  0
    8.1509    0.6875    0.0000 N   0  0  0  0  0  0  0  0  0  0  0  0
    9.2215    1.8765    0.0000 C   0  0  0  0  0  0  0  0  0  0  0  0
    8.4215    3.2621    0.0000 N   0  0  0  0  0  0  0  0  0  0  0  0
    6.8565    2.9295    0.0000 C   0  0  0  0  0  0  0  0  0  0  0  0
    8.4835   -0.8776    0.0000 C   0  0  0  0  0  0  0  0  0  0  0  0
   10.0052   -1.3720    0.0000 C   0  0  0  0  0  0  0  0  0  0  0  0
   10.3379   -2.9370    0.0000 C   0  0  0  0  0  0  0  0  0  0  0  0
   11.8596   -3.4315    0.0000 C   0  0  0  0  0  0  0  0  0  0  0  0
   13.0486   -2.3608    0.0000 C   0  0  0  0  0  0  0  0  0  0  0  0
   14.5703   -2.8553    0.0000 C   0  0  0  0  0  0  0  0  0  0  0  0
   16.0920   -3.3497    0.0000 N   0  0  0  0  0  0  0  0  0  0  0  0
   12.7159   -0.7958    0.0000 C   0  0  0  0  0  0  0  0  0  0  0  0
   11.1943   -0.3014    0.0000 C   0  0  0  0  0  0  0  0  0  0  0  0
    1.0706    1.1890    0.0000 C   0  0  0  0  0  0  0  0  0  0  0  0
    0.7380    2.7541    0.0000 O   0  0  0  0  0  0  0  0  0  0  0  0
  1  2  1  0  0  0  0
  2  3  1  0  0  0  0
  2  7  2  0  0  0  0
  3  4  2  0  0  0  0
  4  5  1  0  0  0  0
  5  6  2  0  0  0  0
  6  7  1  0  0  0  0
  6  8  1  0  0  0  0
  8  9  2  0  0  0  0
  8 10  1  0  0  0  0
 10 11  1  0  0  0  0
 10 30  1  0  0  0  0
 11 12  1  0  0  0  0
 12 13  1  0  0  0  0
 13 14  1  0  0  0  0
 13 30  1  0  0  0  0
 14 15  1  0  0  0  0
 15 16  1  0  0  0  0
 16 17  1  0  0  0  0
 16 20  2  0  0  0  0
 17 18  1  0  0  0  0
 17 21  1  0  0  0  0
 18 19  2  0  0  0  0
 19 20  1  0  0  0  0
 21 22  1  0  0  0  0
 22 23  1  0  0  0  0
 22 29  2  0  0  0  0
 23 24  2  0  0  0  0
 24 25  1  0  0  0  0
 25 26  1  0  0  0  0
 25 28  2  0  0  0  0
 26 27  3  0  0  0  0
 28 29  1  0  0  0  0
 30 31  2  0  0  0  0
M  END
> <Acceptable>
false

> <IC50>
5.8

$$$$

Generated by Molecular Materials Informatics

 23 26  0  0  0  0  0  0  0  0999 V2000
   -5.6786    2.8944    0.0000 Cl  0  0  0  0  0  0  0  0  0  0  0  0
   -4.2930    2.0944    0.0000 C   0  0  0  0  0  0  0  0  0  0  0  0
   -4.2930    0.4944    0.0000 C   0  0  0  0  0  0  0  0  0  0  0  0
   -2.9073   -0.3056    0.0000 C   0  0  0  0  0  0  0  0  0  0  0  0
   -1.5217    0.4944    0.0000 C   0  0  0  0  0  0  0  0  0  0  0  0
   -1.5217    2.0944    0.0000 C   0  0  0  0  0  0  0  0  0  0  0  0
    0.0000    2.5889    0.0000 N   0  0  0  0  0  0  0  0  0  0  0  0
    0.9405    1.2944    0.0000 C   0  0  0  0  0  0  0  0  0  0  0  0
    2.5405    1.2944    0.0000 C   0  0  0  0  0  0  0  0  0  0  0  0
    3.3405   -0.0912    0.0000 C   0  0  0  0  0  0  0  0  0  0  0  0
    4.9405   -0.0912    0.0000 C   0  0  0  0  0  0  0  0  0  0  0  0
    5.7405    1.2944    0.0000 C   0  0  0  0  0  0  0  0  0  0  0  0
    4.9405    2.6801    0.0000 C   0  0  0  0  0  0  0  0  0  0  0  0
    3.3405    2.6801    0.0000 C   0  0  0  0  0  0  0  0  0  0  0  0
    0.0000    0.0000    0.0000 C   0  0  0  0  0  0  0  0  0  0  0  0
    0.4944   -1.5217    0.0000 C   0  0  0  0  0  0  0  0  0  0  0  0
    2.0595   -1.8544    0.0000 C   0  0  0  0  0  0  0  0  0  0  0  0
    2.5539   -3.3760    0.0000 N   0  0  0  0  0  0  0  0  0  0  0  0
    1.4833   -4.5651    0.0000 C   0  0  0  0  0  0  0  0  0  0  0  0
   -0.0818   -4.2324    0.0000 C   0  0  0  0  0  0  0  0  0  0  0  0
   -0.5762   -2.7107    0.0000 C   0  0  0  0  0  0  0  0  0  0  0  0
   -2.1412   -2.3781    0.0000 F   0  0  0  0  0  0  0  0  0  0  0  0
   -2.9073    2.8944    0.0000 C   0  0  0  0  0  0  0  0  0  0  0  0
  1  2  1  0  0  0  0
  2  3  1  0  0  0  0
  2 23  2  0  0  0  0
  3  4  2  0  0  0  0
  4  5  1  0  0  0  0
  5  6  2  0  0  0  0
  5 15  1  0  0  0  0
  6  7  1  0  0  0  0
  6 23  1  0  0  0  0
  7  8  1  0  0  0  0
  8  9  1  0  0  0  0
  8 15  2  0  0  0  0
  9 10  1  0  0  0  0
  9 14  2  0  0  0  0
 10 11  2  0  0  0  0
 11 12  1  0  0  0  0
 12 13  2  0  0  0  0
 13 14  1  0  0  0  0
 15 16  1  0  0  0  0
 16 17  1  0  0  0  0
 16 21  1  0  0  0  0
 17 18  1  0  0  0  0
 18 19  1  0  0  0  0
 19 20  1  0  0  0  0
 20 21  1  0  0  0  0
 21 22  1  0  0  0  0
M  END
> <Acceptable>
false

> <IC50>
1.4

$$$$

Generated by Molecular Materials Informatics

 23 26  0  0  0  0  0  0  0  0999 V2000
   -5.6786    0.3056    0.0000 Cl  0  0  0  0  0  0  0  0  0  0  0  0
   -4.2930   -0.4944    0.0000 C   0  0  0  0  0  0  0  0  0  0  0  0
   -4.2930   -2.0944    0.0000 C   0  0  0  0  0  0  0  0  0  0  0  0
   -2.9073   -2.8944    0.0000 C   0  0  0  0  0  0  0  0  0  0  0  0
   -1.5217   -2.0944    0.0000 C   0  0  0  0  0  0  0  0  0  0  0  0
    0.0000   -2.5889    0.0000 N   0  0  0  0  0  0  0  0  0  0  0  0
    0.9405   -1.2944    0.0000 C   0  0  0  0  0  0  0  0  0  0  0  0
    2.5405   -1.2944    0.0000 C   0  0  0  0  0  0  0  0  0  0  0  0
    3.3405   -2.6801    0.0000 C   0  0  0  0  0  0  0  0  0  0  0  0
    4.9405   -2.6801    0.0000 C   0  0  0  0  0  0  0  0  0  0  0  0
    5.7405   -1.2944    0.0000 C   0  0  0  0  0  0  0  0  0  0  0  0
    4.9405    0.0912    0.0000 C   0  0  0  0  0  0  0  0  0  0  0  0
    3.3405    0.0912    0.0000 C   0  0  0  0  0  0  0  0  0  0  0  0
    0.0000    0.0000    0.0000 C   0  0  0  0  0  0  0  0  0  0  0  0
   -1.5217   -0.4944    0.0000 C   0  0  0  0  0  0  0  0  0  0  0  0
   -2.9073    0.3056    0.0000 C   0  0  0  0  0  0  0  0  0  0  0  0
    0.4944    1.5217    0.0000 C   0  0  0  0  0  0  0  0  0  0  0  0
    2.0595    1.8543    0.0000 C   0  0  0  0  0  0  0  0  0  0  0  0
    2.5539    3.3760    0.0000 N   0  0  0  0  0  0  0  0  0  0  0  0
    1.4833    4.5651    0.0000 C   0  0  0  0  0  0  0  0  0  0  0  0
   -0.0818    4.2324    0.0000 C   0  0  0  0  0  0  0  0  0  0  0  0
   -0.5762    2.7107    0.0000 C   0  0  0  0  0  0  0  0  0  0  0  0
   -2.1412    2.3781    0.0000 F   0  0  0  0  0  0  0  0  0  0  0  0
  1  2  1  0  0  0  0
  2  3  1  0  0  0  0
  2 16  2  0  0  0  0
  3  4  2  0  0  0  0
  4  5  1  0  0  0  0
  5  6  1  0  0  0  0
  5 15  2  0  0  0  0
  6  7  1  0  0  0  0
  7  8  1  0  0  0  0
  7 14  2  0  0  0  0
  8  9  1  0  0  0  0
  8 13  2  0  0  0  0
  9 10  2  0  0  0  0
 10 11  1  0  0  0  0
 11 12  2  0  0  0  0
 12 13  1  0  0  0  0
 14 15  1  0  0  0  0
 14 17  1  0  0  0  0
 15 16  1  0  0  0  0
 17 18  1  0  0  0  0
 17 22  1  0  0  0  0
 18 19  1  0  0  0  0
 19 20  1  0  0  0  0
 20 21  1  0  0  0  0
 21 22  1  0  0  0  0
 22 23  1  0  0  0  0
M  END
> <Acceptable>
false

> <IC50>
7

$$$$

Generated by Molecular Materials Informatics

 24 26  0  0  0  0  0  0  0  0999 V2000
   -5.5122   -0.5794    0.0000 Br  0  0  0  0  0  0  0  0  0  0  0  0
   -4.0505   -1.2301    0.0000 C   0  0  0  0  0  0  0  0  0  0  0  0
   -3.8833   -2.8214    0.0000 C   0  0  0  0  0  0  0  0  0  0  0  0
   -2.4216   -3.4721    0.0000 C   0  0  0  0  0  0  0  0  0  0  0  0
   -1.1272   -2.5317    0.0000 C   0  0  0  0  0  0  0  0  0  0  0  0
   -1.2944   -0.9405    0.0000 C   0  0  0  0  0  0  0  0  0  0  0  0
   -2.7561   -0.2897    0.0000 C   0  0  0  0  0  0  0  0  0  0  0  0
    0.0000    0.0000    0.0000 C   0  0  0  0  0  0  0  0  0  0  0  0
    1.5217   -0.4944    0.0000 N   0  0  0  0  0  0  0  0  0  0  0  0
    2.4621    0.8000    0.0000 C   0  0  0  0  0  0  0  0  0  0  0  0
    1.5217    2.0944    0.0000 N   0  0  0  0  0  0  0  0  0  0  0  0
    0.0000    1.6000    0.0000 C   0  0  0  0  0  0  0  0  0  0  0  0
    4.0621    0.8000    0.0000 C   0  0  0  0  0  0  0  0  0  0  0  0
    4.8621   -0.5856    0.0000 C   0  0  0  0  0  0  0  0  0  0  0  0
    6.4621   -0.5856    0.0000 C   0  0  0  0  0  0  0  0  0  0  0  0
    7.2621    0.8000    0.0000 C   0  0  0  0  0  0  0  0  0  0  0  0
    6.4621    2.1856    0.0000 C   0  0  0  0  0  0  0  0  0  0  0  0
    4.8621    2.1856    0.0000 C   0  0  0  0  0  0  0  0  0  0  0  0
    8.8621    0.8000    0.0000 C   0  0  0  0  0  0  0  0  0  0  0  0
    9.6621   -0.5856    0.0000 O   0  0  0  0  0  0  0  0  0  0  0  0
    9.6621    2.1856    0.0000 N   0  0  0  0  0  0  0  0  0  0  0  0
   11.2621    2.1856    0.0000 C   0  0  0  0  0  0  0  0  0  0  0  0
   12.0621    0.8000    0.0000 O   0  0  0  0  0  0  0  0  0  0  0  0
   12.0621    3.5713    0.0000 C   0  0  0  0  0  0  0  0  0  0  0  0
  1  2  1  0  0  0  0
  2  3  1  0  0  0  0
  2  7  2  0  0  0  0
  3  4  2  0  0  0  0
  4  5  1  0  0  0  0
  5  6  2  0  0  0  0
  6  7  1  0  0  0  0
  6  8  1  0  0  0  0
  8  9  1  0  0  0  0
  8 12  2  0  0  0  0
  9 10  2  0  0  0  0
 10 11  1  0  0  0  0
 10 13  1  0  0  0  0
 11 12  1  0  0  0  0
 13 14  1  0  0  0  0
 13 18  1  0  0  0  0
 14 15  1  0  0  0  0
 15 16  1  0  0  0  0
 16 17  1  0  0  0  0
 16 19  1  0  0  0  0
 17 18  1  0  0  0  0
 19 20  2  0  0  0  0
 19 21  1  0  0  0  0
 21 22  1  0  0  0  0
 22 23  2  0  0  0  0
 22 24  1  0  0  0  0
M  END
> <Acceptable>
false

> <IC50>
<1

$$$$

Generated by Molecular Materials Informatics

 31 34  0  0  0  0  0  0  0  0999 V2000
   -6.6546   -2.0871    0.0000 Br  0  0  0  0  0  0  0  0  0  0  0  0
   -5.0634   -2.2544    0.0000 C   0  0  0  0  0  0  0  0  0  0  0  0
   -4.4126   -3.7160    0.0000 C   0  0  0  0  0  0  0  0  0  0  0  0
   -2.8214   -3.8833    0.0000 N   0  0  0  0  0  0  0  0  0  0  0  0
   -1.8809   -2.5889    0.0000 C   0  0  0  0  0  0  0  0  0  0  0  0
   -2.5317   -1.1272    0.0000 C   0  0  0  0  0  0  0  0  0  0  0  0
   -4.1229   -0.9599    0.0000 C   0  0  0  0  0  0  0  0  0  0  0  0
   -1.5912    0.1672    0.0000 C   0  0  0  0  0  0  0  0  0  0  0  0
   -2.2420    1.6289    0.0000 O   0  0  0  0  0  0  0  0  0  0  0  0
    0.0000    0.0000    0.0000 N   0  0  0  0  0  0  0  0  0  0  0  0
    0.8000   -1.3856    0.0000 C   0  0  0  0  0  0  0  0  0  0  0  0
    2.3650   -1.0530    0.0000 C   0  0  0  0  0  0  0  0  0  0  0  0
    2.5323    0.5383    0.0000 C   0  0  0  0  0  0  0  0  0  0  0  0
    3.9179    1.3383    0.0000 N   0  0  0  0  0  0  0  0  0  0  0  0
    5.3036    0.5383    0.0000 C   0  0  0  0  0  0  0  0  0  0  0  0
    6.6892    1.3383    0.0000 C   0  0  0  0  0  0  0  0  0  0  0  0
    8.1509    0.6875    0.0000 N   0  0  0  0  0  0  0  0  0  0  0  0
    9.2215    1.8765    0.0000 C   0  0  0  0  0  0  0  0  0  0  0  0
    8.4215    3.2621    0.0000 N   0  0  0  0  0  0  0  0  0  0  0  0
    6.8565    2.9295    0.0000 C   0  0  0  0  0  0  0  0  0  0  0  0
    8.4835   -0.8776    0.0000 C   0  0  0  0  0  0  0  0  0  0  0  0
   10.0052   -1.3720    0.0000 C   0  0  0  0  0  0  0  0  0  0  0  0
   10.3379   -2.9370    0.0000 C   0  0  0  0  0  0  0  0  0  0  0  0
   11.8596   -3.4315    0.0000 C   0  0  0  0  0  0  0  0  0  0  0  0
   13.0486   -2.3608    0.0000 C   0  0  0  0  0  0  0  0  0  0  0  0
   14.5703   -2.8553    0.0000 C   0  0  0  0  0  0  0  0  0  0  0  0
   16.0920   -3.3497    0.0000 N   0  0  0  0  0  0  0  0  0  0  0  0
   12.7159   -0.7958    0.0000 C   0  0  0  0  0  0  0  0  0  0  0  0
   11.1943   -0.3014    0.0000 C   0  0  0  0  0  0  0  0  0  0  0  0
    1.0706    1.1890    0.0000 C   0  0  0  0  0  0  0  0  0  0  0  0
    0.7380    2.7541    0.0000 O   0  0  0  0  0  0  0  0  0  0  0  0
  1  2  1  0  0  0  0
  2  3  1  0  0  0  0
  2  7  2  0  0  0  0
  3  4  2  0  0  0  0
  4  5  1  0  0  0  0
  5  6  2  0  0  0  0
  6  7  1  0  0  0  0
  6  8  1  0  0  0  0
  8  9  2  0  0  0  0
  8 10  1  0  0  0  0
 10 11  1  0  0  0  0
 10 30  1  0  0  0  0
 11 12  1  0  0  0  0
 12 13  1  0  0  0  0
 13 14  1  0  0  0  0
 13 30  1  0  0  0  0
 14 15  1  0  0  0  0
 15 16  1  0  0  0  0
 16 17  1  0  0  0  0
 16 20  2  0  0  0  0
 17 18  1  0  0  0  0
 17 21  1  0  0  0  0
 18 19  2  0  0  0  0
 19 20  1  0  0  0  0
 21 22  1  0  0  0  0
 22 23  1  0  0  0  0
 22 29  2  0  0  0  0
 23 24  2  0  0  0  0
 24 25  1  0  0  0  0
 25 26  1  0  0  0  0
 25 28  2  0  0  0  0
 26 27  3  0  0  0  0
 28 29  1  0  0  0  0
 30 31  2  0  0  0  0
M  END
> <Acceptable>
false

> <IC50>
6

$$$$

Generated by Molecular Materials Informatics

 26 30  0  0  0  0  0  0  0  0999 V2000
   -4.1569   -2.4000    0.0000 O   0  0  0  0  0  0  0  0  0  0  0  0
   -5.5426   -1.6000    0.0000 C   0  0  0  0  0  0  0  0  0  0  0  0
   -6.9282   -2.4000    0.0000 O   0  0  0  0  0  0  0  0  0  0  0  0
   -6.9282   -4.0000    0.0000 C   0  0  0  0  0  0  0  0  0  0  0  0
   -5.5426    0.0000    0.0000 C   0  0  0  0  0  0  0  0  0  0  0  0
   -6.9282    0.8000    0.0000 C   0  0  0  0  0  0  0  0  0  0  0  0
   -8.3138    0.0000    0.0000 O   0  0  0  0  0  0  0  0  0  0  0  0
   -6.9282    2.4000    0.0000 C   0  0  0  0  0  0  0  0  0  0  0  0
   -5.5426    3.2000    0.0000 C   0  0  0  0  0  0  0  0  0  0  0  0
   -4.1569    2.4000    0.0000 C   0  0  0  0  0  0  0  0  0  0  0  0
   -2.7713    3.2000    0.0000 C   0  0  0  0  0  0  0  0  0  0  0  0
   -1.3856    2.4000    0.0000 N   0  0  0  0  0  0  0  0  0  0  0  0
    0.0000    3.2000    0.0000 C   0  0  0  0  0  0  0  0  0  0  0  0
    1.3856    2.4000    0.0000 C   0  0  0  0  0  0  0  0  0  0  0  0
    1.3856    0.8000    0.0000 C   0  0  0  0  0  0  0  0  0  0  0  0
    2.5747   -0.2706    0.0000 C   0  0  0  0  0  0  0  0  0  0  0  0
    4.1659   -0.1034    0.0000 C   0  0  0  0  0  0  0  0  0  0  0  0
    5.1064   -1.3978    0.0000 C   0  0  0  0  0  0  0  0  0  0  0  0
    4.4556   -2.8595    0.0000 C   0  0  0  0  0  0  0  0  0  0  0  0
    2.8644   -3.0267    0.0000 C   0  0  0  0  0  0  0  0  0  0  0  0
    1.9239   -1.7323    0.0000 C   0  0  0  0  0  0  0  0  0  0  0  0
    0.3327   -1.5650    0.0000 N   0  0  0  0  0  0  0  0  0  0  0  0
    0.0000    0.0000    0.0000 C   0  0  0  0  0  0  0  0  0  0  0  0
   -1.3856    0.8000    0.0000 C   0  0  0  0  0  0  0  0  0  0  0  0
   -2.7713    0.0000    0.0000 C   0  0  0  0  0  0  0  0  0  0  0  0
   -4.1569    0.8000    0.0000 C   0  0  0  0  0  0  0  0  0  0  0  0
  1  2  2  0  0  0  0
  2  3  1  0  0  0  0
  5  2  1  1  0  0  0
  3  4  1  0  0  0  0
  5  6  1  0  0  0  0
  5 26  1  0  0  0  0
  6  7  1  1  0  0  0
  6  8  1  0  0  0  0
  8  9  1  0  0  0  0
 10  9  1  1  0  0  0
 10 11  1  0  0  0  0
 10 26  1  0  0  0  0
 12 11  1  1  0  0  0
 12 13  1  0  0  0  0
 12 24  1  0  0  0  0
 13 14  1  0  0  0  0
 14 15  1  0  0  0  0
 15 16  1  0  0  0  0
 15 23  2  0  0  0  0
 16 17  1  0  0  0  0
 16 21  2  0  0  0  0
 17 18  2  0  0  0  0
 18 19  1  0  0  0  0
 19 20  2  0  0  0  0
 20 21  1  0  0  0  0
 21 22  1  0  0  0  0
 22 23  1  0  0  0  0
 24 23  1  6  0  0  0
 24 25  1  0  0  0  0
 26 25  1  6  0  0  0
M  END
> <Acceptable>
true

> <IC50>
N/A

$$$$

Generated by Molecular Materials Informatics

 31 32  0  0  0  0  0  0  0  0999 V2000
   -4.9405   -0.0912    0.0000 S   0  0  0  0  0  0  0  0  0  0  0  0
   -7.5893   -4.7173    0.0000 O   0  0  0  0  0  0  0  0  0  0  0  0
    3.2000   -2.7713    0.0000 O   0  0  0  0  0  0  0  0  0  0  0  0
    4.8000    0.0000    0.0000 O   0  0  0  0  0  0  0  0  0  0  0  0
    0.0000    2.7713    0.0000 O   0  0  0  0  0  0  0  0  0  0  0  0
   -2.4000    1.3856    0.0000 O   0  0  0  0  0  0  0  0  0  0  0  0
  -13.2688   -3.7054    0.0000 N   0  0  0  0  0  0  0  0  0  0  0  0
   -9.2182   -2.4753    0.0000 N   0  0  0  0  0  0  0  0  0  0  0  0
   -4.9405   -2.6801    0.0000 N   0  0  0  0  0  0  0  0  0  0  0  0
   -2.4000   -1.3856    0.0000 N   0  0  0  0  0  0  0  0  0  0  0  0
  -13.1015   -5.2967    0.0000 C   0  0  0  0  0  0  0  0  0  0  0  0
  -14.7304   -3.0547    0.0000 C   0  0  0  0  0  0  0  0  0  0  0  0
  -11.9743   -2.7650    0.0000 C   0  0  0  0  0  0  0  0  0  0  0  0
  -10.5127   -3.4158    0.0000 C   0  0  0  0  0  0  0  0  0  0  0  0
  -11.6399   -5.9475    0.0000 C   0  0  0  0  0  0  0  0  0  0  0  0
  -14.3960   -6.2371    0.0000 C   0  0  0  0  0  0  0  0  0  0  0  0
  -14.8977   -1.4634    0.0000 C   0  0  0  0  0  0  0  0  0  0  0  0
  -16.0249   -3.9951    0.0000 C   0  0  0  0  0  0  0  0  0  0  0  0
   -7.7566   -3.1261    0.0000 C   0  0  0  0  0  0  0  0  0  0  0  0
   -6.4621   -2.1856    0.0000 C   0  0  0  0  0  0  0  0  0  0  0  0
   -6.4621   -0.5856    0.0000 C   0  0  0  0  0  0  0  0  0  0  0  0
   -4.0000   -1.3856    0.0000 C   0  0  0  0  0  0  0  0  0  0  0  0
    0.0000    0.0000    0.0000 C   0  0  0  0  0  0  0  0  0  0  0  0
   -1.6000    0.0000    0.0000 C   0  0  0  0  0  0  0  0  0  0  0  0
    0.8000   -1.3856    0.0000 C   0  0  0  0  0  0  0  0  0  0  0  0
    0.8000    1.3856    0.0000 C   0  0  0  0  0  0  0  0  0  0  0  0
    2.4000   -1.3856    0.0000 C   0  0  0  0  0  0  0  0  0  0  0  0
    3.2000    0.0000    0.0000 C   0  0  0  0  0  0  0  0  0  0  0  0
    2.4000    1.3856    0.0000 C   0  0  0  0  0  0  0  0  0  0  0  0
    2.4000   -4.1569    0.0000 C   0  0  0  0  0  0  0  0  0  0  0  0
    5.6000    1.3856    0.0000 C   0  0  0  0  0  0  0  0  0  0  0  0
  1 21  1  0  0  0  0
  1 22  1  0  0  0  0
  2 19  2  0  0  0  0
  3 27  1  0  0  0  0
  3 30  1  0  0  0  0
  4 28  1  0  0  0  0
  4 31  1  0  0  0  0
  5 26  1  0  0  0  0
  6 24  2  0  0  0  0
  7 11  1  0  0  0  0
  7 12  1  0  0  0  0
  7 13  1  0  0  0  0
  8 14  1  0  0  0  0
  8 19  1  0  0  0  0
  9 20  1  0  0  0  0
  9 22  2  0  0  0  0
 10 22  1  0  0  0  0
 10 24  1  0  0  0  0
 11 15  1  0  0  0  0
 11 16  1  0  0  0  0
 12 17  1  0  0  0  0
 12 18  1  0  0  0  0
 13 14  1  0  0  0  0
 19 20  1  0  0  0  0
 20 21  2  0  0  0  0
 23 24  1  0  0  0  0
 23 25  2  0  0  0  0
 23 26  1  0  0  0  0
 25 27  1  0  0  0  0
 26 29  2  0  0  0  0
 27 28  2  0  0  0  0
 28 29  1  0  0  0  0
M  END
> <Acceptable>
false

> <IC50>
>10

$$$$

Generated by Molecular Materials Informatics

 41 45  0  0  0  0  0  0  0  0999 V2000
   11.5516    0.6636    0.0000 S   0  0  0  0  0  0  0  0  0  0  0  0
   11.0571    2.1853    0.0000 O   0  0  0  0  0  0  0  0  0  0  0  0
   12.0460   -0.8581    0.0000 O   0  0  0  0  0  0  0  0  0  0  0  0
   10.0299    0.1691    0.0000 N   0  0  0  0  0  0  0  0  0  0  0  0
    8.8408    1.2398    0.0000 C   0  0  0  0  0  0  0  0  0  0  0  0
    9.1735    2.8048    0.0000 O   0  0  0  0  0  0  0  0  0  0  0  0
    7.3191    0.7453    0.0000 C   0  0  0  0  0  0  0  0  0  0  0  0
    6.1301    1.8159    0.0000 C   0  0  0  0  0  0  0  0  0  0  0  0
    4.6084    1.3215    0.0000 C   0  0  0  0  0  0  0  0  0  0  0  0
    4.2758   -0.2435    0.0000 C   0  0  0  0  0  0  0  0  0  0  0  0
    2.7541   -0.7380    0.0000 C   0  0  0  0  0  0  0  0  0  0  0  0
    1.5650    0.3327    0.0000 C   0  0  0  0  0  0  0  0  0  0  0  0
    1.7323    1.9239    0.0000 C   0  0  0  0  0  0  0  0  0  0  0  0
    0.2706    2.5747    0.0000 N   0  0  0  0  0  0  0  0  0  0  0  0
   -0.0621    4.1397    0.0000 C   0  0  0  0  0  0  0  0  0  0  0  0
   -0.8000    1.3856    0.0000 C   0  0  0  0  0  0  0  0  0  0  0  0
   -2.4000    1.3856    0.0000 C   0  0  0  0  0  0  0  0  0  0  0  0
   -3.2000    0.0000    0.0000 C   0  0  0  0  0  0  0  0  0  0  0  0
   -2.4000   -1.3856    0.0000 C   0  0  0  0  0  0  0  0  0  0  0  0
   -3.2000   -2.7713    0.0000 N   0  0  0  0  0  0  0  0  0  0  0  0
   -4.8000   -2.7713    0.0000 C   0  0  0  0  0  0  0  0  0  0  0  0
   -5.6000   -1.3856    0.0000 O   0  0  0  0  0  0  0  0  0  0  0  0
   -5.6000   -4.1569    0.0000 O   0  0  0  0  0  0  0  0  0  0  0  0
   -7.2000   -4.1569    0.0000 C   0  0  0  0  0  0  0  0  0  0  0  0
   -8.1405   -2.8625    0.0000 C   0  0  0  0  0  0  0  0  0  0  0  0
   -9.6621   -3.3569    0.0000 C   0  0  0  0  0  0  0  0  0  0  0  0
   -9.6621   -4.9569    0.0000 C   0  0  0  0  0  0  0  0  0  0  0  0
   -8.1405   -5.4513    0.0000 C   0  0  0  0  0  0  0  0  0  0  0  0
   -0.8000   -1.3856    0.0000 C   0  0  0  0  0  0  0  0  0  0  0  0
    0.0000    0.0000    0.0000 C   0  0  0  0  0  0  0  0  0  0  0  0
    5.4648   -1.3141    0.0000 C   0  0  0  0  0  0  0  0  0  0  0  0
    5.1321   -2.8792    0.0000 O   0  0  0  0  0  0  0  0  0  0  0  0
    6.3212   -3.9498    0.0000 C   0  0  0  0  0  0  0  0  0  0  0  0
    6.9865   -0.8197    0.0000 C   0  0  0  0  0  0  0  0  0  0  0  0
   13.0732    1.1580    0.0000 C   0  0  0  0  0  0  0  0  0  0  0  0
   14.2623    0.0874    0.0000 C   0  0  0  0  0  0  0  0  0  0  0  0
   15.7840    0.5818    0.0000 C   0  0  0  0  0  0  0  0  0  0  0  0
   16.1166    2.1469    0.0000 C   0  0  0  0  0  0  0  0  0  0  0  0
   14.9276    3.2175    0.0000 C   0  0  0  0  0  0  0  0  0  0  0  0
   13.4059    2.7230    0.0000 C   0  0  0  0  0  0  0  0  0  0  0  0
   12.2169    3.7937    0.0000 C   0  0  0  0  0  0  0  0  0  0  0  0
  1  2  2  0  0  0  0
  1  3  2  0  0  0  0
  1  4  1  0  0  0  0
  1 35  1  0  0  0  0
  4  5  1  0  0  0  0
  5  6  2  0  0  0  0
  5  7  1  0  0  0  0
  7  8  1  0  0  0  0
  7 34  2  0  0  0  0
  8  9  2  0  0  0  0
  9 10  1  0  0  0  0
 10 11  1  0  0  0  0
 10 31  2  0  0  0  0
 11 12  1  0  0  0  0
 12 13  2  0  0  0  0
 12 30  1  0  0  0  0
 13 14  1  0  0  0  0
 14 15  1  0  0  0  0
 14 16  1  0  0  0  0
 16 17  1  0  0  0  0
 16 30  2  0  0  0  0
 17 18  2  0  0  0  0
 18 19  1  0  0  0  0
 19 20  1  0  0  0  0
 19 29  2  0  0  0  0
 20 21  1  0  0  0  0
 21 22  2  0  0  0  0
 21 23  1  0  0  0  0
 23 24  1  0  0  0  0
 24 25  1  0  0  0  0
 24 28  1  0  0  0  0
 25 26  1  0  0  0  0
 26 27  1  0  0  0  0
 27 28  1  0  0  0  0
 29 30  1  0  0  0  0
 31 32  1  0  0  0  0
 31 34  1  0  0  0  0
 32 33  1  0  0  0  0
 35 36  1  0  0  0  0
 35 40  2  0  0  0  0
 36 37  2  0  0  0  0
 37 38  1  0  0  0  0
 38 39  2  0  0  0  0
 39 40  1  0  0  0  0
 40 41  1  0  0  0  0
M  END
> <Acceptable>
false

> <IC50>
25.1

$$$$

Generated by Molecular Materials Informatics

 15 16  0  0  0  0  0  0  0  0999 V2000
    0.0000    2.7713    0.0000 O   0  0  0  0  0  0  0  0  0  0  0  0
   -0.8000    1.3856    0.0000 C   0  0  0  0  0  0  0  0  0  0  0  0
   -2.4000    1.3856    0.0000 N   0  0  0  0  0  0  0  0  0  0  0  0
   -3.2000    0.0000    0.0000 C   0  0  0  0  0  0  0  0  0  0  0  0
   -4.8000    0.0000    0.0000 N   0  0  0  0  0  0  0  0  0  0  0  0
   -2.4000   -1.3856    0.0000 C   0  0  0  0  0  0  0  0  0  0  0  0
   -0.8000   -1.3856    0.0000 C   0  0  0  0  0  0  0  0  0  0  0  0
    0.0000    0.0000    0.0000 N   0  0  0  0  0  0  0  0  0  0  0  0
    1.6000    0.0000    0.0000 C   0  0  0  0  0  0  0  0  0  0  0  0
    2.5405   -1.2944    0.0000 O   0  0  0  0  0  0  0  0  0  0  0  0
    4.0621   -0.8000    0.0000 C   0  0  0  0  0  0  0  0  0  0  0  0
    4.0621    0.8000    0.0000 C   0  0  0  0  0  0  0  0  0  0  0  0
    2.5405    1.2944    0.0000 C   0  0  0  0  0  0  0  0  0  0  0  0
    5.3566   -1.7405    0.0000 C   0  0  0  0  0  0  0  0  0  0  0  0
    6.8182   -1.0897    0.0000 O   0  0  0  0  0  0  0  0  0  0  0  0
  1  2  2  0  0  0  0
  2  3  1  0  0  0  0
  2  8  1  0  0  0  0
  3  4  2  0  0  0  0
  4  5  1  0  0  0  0
  4  6  1  0  0  0  0
  6  7  2  0  0  0  0
  7  8  1  0  0  0  0
  9  8  1  1  0  0  0
  9 10  1  0  0  0  0
  9 13  1  0  0  0  0
 10 11  1  0  0  0  0
 11 12  1  0  0  0  0
 11 14  1  1  0  0  0
 12 13  1  0  0  0  0
 14 15  1  0  0  0  0
M  END
> <Acceptable>
true

> <IC50>
N/A

$$$$

Generated by Molecular Materials Informatics

 23 25  0  0  0  0  0  0  0  0999 V2000
    8.3138    1.6000    0.0000 O   0  0  0  0  0  0  0  0  0  0  0  0
    8.3138    0.0000    0.0000 C   0  0  0  0  0  0  0  0  0  0  0  0
    6.9282   -0.8000    0.0000 N   0  0  0  0  0  0  0  0  0  0  0  0
    6.9282   -2.4000    0.0000 C   0  0  0  0  0  0  0  0  0  0  0  0
    8.3138   -3.2000    0.0000 C   0  0  0  0  0  0  0  0  0  0  0  0
    5.5426    0.0000    0.0000 C   0  0  0  0  0  0  0  0  0  0  0  0
    5.5426    1.6000    0.0000 C   0  0  0  0  0  0  0  0  0  0  0  0
    4.1569    2.4000    0.0000 C   0  0  0  0  0  0  0  0  0  0  0  0
    2.7713    1.6000    0.0000 C   0  0  0  0  0  0  0  0  0  0  0  0
    2.7713    0.0000    0.0000 C   0  0  0  0  0  0  0  0  0  0  0  0
    4.1569   -0.8000    0.0000 C   0  0  0  0  0  0  0  0  0  0  0  0
    1.3856   -0.8000    0.0000 C   0  0  0  0  0  0  0  0  0  0  0  0
    0.0000    0.0000    0.0000 N   0  3  0  0  0  0  0  0  0  0  0  0
   -0.3327    1.5650    0.0000 N   0  0  0  0  0  0  0  0  0  0  0  0
   -1.9239    1.7323    0.0000 C   0  0  0  0  0  0  0  0  0  0  0  0
   -2.5747    0.2706    0.0000 C   0  0  0  0  0  0  0  0  0  0  0  0
   -4.1397   -0.0621    0.0000 C   0  0  0  0  0  0  0  0  0  0  0  0
   -5.7047   -0.3947    0.0000 N   0  0  0  0  0  0  0  0  0  0  0  0
   -1.3856   -0.8000    0.0000 C   0  0  0  0  0  0  0  0  0  0  0  0
   -1.3856   -2.4000    0.0000 N   0  0  0  0  0  0  0  0  0  0  0  0
    0.0000   -3.2000    0.0000 C   0  0  0  0  0  0  0  0  0  0  0  0
    1.3856   -2.4000    0.0000 C   0  0  0  0  0  0  0  0  0  0  0  0
    9.6995   -0.8000    0.0000 C   0  0  0  0  0  0  0  0  0  0  0  0
  1  2  2  0  0  0  0
  2  3  1  0  0  0  0
  2 23  1  0  0  0  0
  3  4  1  0  0  0  0
  3  6  1  0  0  0  0
  4  5  1  0  0  0  0
  6  7  1  0  0  0  0
  6 11  2  0  0  0  0
  7  8  2  0  0  0  0
  8  9  1  0  0  0  0
  9 10  2  0  0  0  0
 10 11  1  0  0  0  0
 10 12  1  0  0  0  0
 12 13  2  0  0  0  0
 12 22  1  0  0  0  0
 13 14  1  0  0  0  0
 13 19  1  0  0  0  0
 14 15  2  0  0  0  0
 15 16  1  0  0  0  0
 16 17  1  0  0  0  0
 16 19  2  0  0  0  0
 17 18  3  0  0  0  0
 19 20  1  0  0  0  0
 20 21  1  0  0  0  0
 21 22  2  0  0  0  0
M  CHG  1  13   1
M  END
> <Acceptable>
true

> <IC50>
N/A

$$$$

Generated by Molecular Materials Informatics

 19 20  0  0  0  0  0  0  0  0999 V2000
    1.3856    2.4000    0.0000 O   0  0  0  0  0  0  0  0  0  0  0  0
    0.0000    1.6000    0.0000 C   0  0  0  0  0  0  0  0  0  0  0  0
   -1.3856    2.4000    0.0000 N   0  0  0  0  0  0  0  0  0  0  0  0
   -2.7713    1.6000    0.0000 C   0  0  0  0  0  0  0  0  0  0  0  0
   -4.1569    2.4000    0.0000 O   0  0  0  0  0  0  0  0  0  0  0  0
   -2.7713    0.0000    0.0000 C   0  0  0  0  0  0  0  0  0  0  0  0
   -4.1569   -0.8000    0.0000 C   0  0  0  0  0  0  0  0  0  0  0  0
   -1.3856   -0.8000    0.0000 C   0  0  0  0  0  0  0  0  0  0  0  0
    0.0000    0.0000    0.0000 N   0  0  0  0  0  0  0  0  0  0  0  0
    1.3856   -0.8000    0.0000 C   0  0  0  0  0  0  0  0  0  0  0  0
    1.5529   -2.3912    0.0000 O   0  0  0  0  0  0  0  0  0  0  0  0
    3.1179   -2.7239    0.0000 C   0  0  0  0  0  0  0  0  0  0  0  0
    3.7687   -4.1856    0.0000 C   0  0  0  0  0  0  0  0  0  0  0  0
    2.8282   -5.4800    0.0000 O   0  0  0  0  0  0  0  0  0  0  0  0
    3.9179   -1.3383    0.0000 C   0  0  0  0  0  0  0  0  0  0  0  0
    5.5092   -1.1710    0.0000 N   0  0  0  0  0  0  0  0  0  0  0  0
    6.1599    0.2907    0.0000 N   0  3  0  0  0  0  0  0  0  0  0  0
    6.8107    1.7523    0.0000 N   0  5  0  0  0  0  0  0  0  0  0  0
    2.8473   -0.1492    0.0000 C   0  0  0  0  0  0  0  0  0  0  0  0
  1  2  2  0  0  0  0
  2  3  1  0  0  0  0
  2  9  1  0  0  0  0
  3  4  1  0  0  0  0
  4  5  2  0  0  0  0
  4  6  1  0  0  0  0
  6  7  1  0  0  0  0
  6  8  2  0  0  0  0
  8  9  1  0  0  0  0
 10  9  1  1  0  0  0
 10 11  1  0  0  0  0
 10 19  1  0  0  0  0
 11 12  1  0  0  0  0
 12 13  1  1  0  0  0
 12 15  1  0  0  0  0
 13 14  1  0  0  0  0
 15 16  1  1  0  0  0
 15 19  1  0  0  0  0
 16 17  2  0  0  0  0
 17 18  2  0  0  0  0
M  CHG  2  17   1  18  -1
M  END
> <Acceptable>
true

> <IC50>
N/A

$$$$

Generated by Molecular Materials Informatics

 28 32  0  0  0  0  0  0  0  0999 V2000
   -8.8000    4.1569    0.0000 Cl  0  0  0  0  0  0  0  0  0  0  0  0
   -9.6000    2.7713    0.0000 C   0  0  0  0  0  0  0  0  0  0  0  0
  -11.2000    2.7713    0.0000 C   0  0  0  0  0  0  0  0  0  0  0  0
  -12.0000    1.3856    0.0000 C   0  0  0  0  0  0  0  0  0  0  0  0
  -13.5650    1.0530    0.0000 N   0  0  0  0  0  0  0  0  0  0  0  0
  -13.7323   -0.5382    0.0000 C   0  0  0  0  0  0  0  0  0  0  0  0
  -15.1179   -1.3382    0.0000 O   0  0  0  0  0  0  0  0  0  0  0  0
  -12.2706   -1.1890    0.0000 C   0  0  0  0  0  0  0  0  0  0  0  0
  -11.2000    0.0000    0.0000 C   0  0  0  0  0  0  0  0  0  0  0  0
   -9.6000    0.0000    0.0000 C   0  0  0  0  0  0  0  0  0  0  0  0
   -8.8000    1.3856    0.0000 C   0  0  0  0  0  0  0  0  0  0  0  0
   -7.2000    1.3856    0.0000 C   0  0  0  0  0  0  0  0  0  0  0  0
   -6.4000    0.0000    0.0000 C   0  0  0  0  0  0  0  0  0  0  0  0
   -4.8000    0.0000    0.0000 N   0  0  0  0  0  0  0  0  0  0  0  0
   -4.0000   -1.3856    0.0000 C   0  0  0  0  0  0  0  0  0  0  0  0
   -2.4000   -1.3856    0.0000 C   0  0  0  0  0  0  0  0  0  0  0  0
   -1.6000    0.0000    0.0000 N   0  0  0  0  0  0  0  0  0  0  0  0
   -2.4000    1.3856    0.0000 C   0  0  0  0  0  0  0  0  0  0  0  0
   -4.0000    1.3856    0.0000 C   0  0  0  0  0  0  0  0  0  0  0  0
    0.0000    0.0000    0.0000 C   0  0  0  0  0  0  0  0  0  0  0  0
    0.9405   -1.2944    0.0000 N   0  0  0  0  0  0  0  0  0  0  0  0
    2.4621   -0.8000    0.0000 S   0  0  0  0  0  0  0  0  0  0  0  0
    2.4621    0.8000    0.0000 C   0  0  0  0  0  0  0  0  0  0  0  0
    3.6512    1.8706    0.0000 C   0  0  0  0  0  0  0  0  0  0  0  0
    3.3185    3.4356    0.0000 C   0  0  0  0  0  0  0  0  0  0  0  0
    1.7968    3.9301    0.0000 C   0  0  0  0  0  0  0  0  0  0  0  0
    0.6078    2.8595    0.0000 C   0  0  0  0  0  0  0  0  0  0  0  0
    0.9405    1.2944    0.0000 C   0  0  0  0  0  0  0  0  0  0  0  0
  1  2  1  0  0  0  0
  2  3  1  0  0  0  0
  2 11  2  0  0  0  0
  3  4  2  0  0  0  0
  4  5  1  0  0  0  0
  4  9  1  0  0  0  0
  5  6  1  0  0  0  0
  6  7  2  0  0  0  0
  6  8  1  0  0  0  0
  8  9  1  0  0  0  0
  9 10  2  0  0  0  0
 10 11  1  0  0  0  0
 11 12  1  0  0  0  0
 12 13  1  0  0  0  0
 13 14  1  0  0  0  0
 14 15  1  0  0  0  0
 14 19  1  0  0  0  0
 15 16  1  0  0  0  0
 16 17  1  0  0  0  0
 17 18  1  0  0  0  0
 17 20  1  0  0  0  0
 18 19  1  0  0  0  0
 20 21  2  0  0  0  0
 20 28  1  0  0  0  0
 21 22  1  0  0  0  0
 22 23  1  0  0  0  0
 23 24  1  0  0  0  0
 23 28  2  0  0  0  0
 24 25  2  0  0  0  0
 25 26  1  0  0  0  0
 26 27  2  0  0  0  0
 27 28  1  0  0  0  0
M  END
> <Acceptable>
false

> <IC50>
0.12

$$$$

Generated by Molecular Materials Informatics

 23 25  0  0  0  0  0  0  0  0999 V2000
   -2.1412    2.3781    0.0000 O   0  0  0  0  0  0  0  0  0  0  0  0
   -0.5762    2.7107    0.0000 C   0  0  0  0  0  0  0  0  0  0  0  0
   -0.0818    4.2324    0.0000 N   0  0  0  0  0  0  0  0  0  0  0  0
    1.4833    4.5651    0.0000 C   0  0  0  0  0  0  0  0  0  0  0  0
   -1.1524    5.4214    0.0000 C   0  0  0  0  0  0  0  0  0  0  0  0
    0.4944    1.5217    0.0000 C   0  0  0  0  0  0  0  0  0  0  0  0
    0.0000    0.0000    0.0000 C   0  0  0  0  0  0  0  0  0  0  0  0
   -1.5217   -0.4944    0.0000 N   0  3  0  0  0  0  0  0  0  0  0  0
   -2.9073    0.3056    0.0000 C   0  0  0  0  0  0  0  0  0  0  0  0
   -4.2930   -0.4944    0.0000 C   0  0  0  0  0  0  0  0  0  0  0  0
   -5.6786    0.3056    0.0000 C   0  0  0  0  0  0  0  0  0  0  0  0
   -4.2930   -2.0944    0.0000 C   0  0  0  0  0  0  0  0  0  0  0  0
   -2.9073   -2.8944    0.0000 C   0  0  0  0  0  0  0  0  0  0  0  0
   -1.5217   -2.0944    0.0000 C   0  0  0  0  0  0  0  0  0  0  0  0
    0.0000   -2.5889    0.0000 N   0  0  0  0  0  0  0  0  0  0  0  0
    0.9405   -1.2944    0.0000 C   0  0  0  0  0  0  0  0  0  0  0  0
    2.5405   -1.2944    0.0000 C   0  0  0  0  0  0  0  0  0  0  0  0
    3.3405   -2.6801    0.0000 C   0  0  0  0  0  0  0  0  0  0  0  0
    4.9405   -2.6801    0.0000 C   0  0  0  0  0  0  0  0  0  0  0  0
    5.7405   -1.2944    0.0000 C   0  0  0  0  0  0  0  0  0  0  0  0
    7.3405   -1.2944    0.0000 C   0  0  0  0  0  0  0  0  0  0  0  0
    4.9405    0.0912    0.0000 C   0  0  0  0  0  0  0  0  0  0  0  0
    3.3405    0.0912    0.0000 C   0  0  0  0  0  0  0  0  0  0  0  0
  1  2  2  0  0  0  0
  2  3  1  0  0  0  0
  2  6  1  0  0  0  0
  3  4  1  0  0  0  0
  3  5  1  0  0  0  0
  6  7  1  0  0  0  0
  7  8  1  0  0  0  0
  7 16  2  0  0  0  0
  8  9  2  0  0  0  0
  8 14  1  0  0  0  0
  9 10  1  0  0  0  0
 10 11  1  0  0  0  0
 10 12  2  0  0  0  0
 12 13  1  0  0  0  0
 13 14  1  0  0  0  0
 14 15  2  0  0  0  0
 15 16  1  0  0  0  0
 16 17  1  0  0  0  0
 17 18  1  0  0  0  0
 17 23  2  0  0  0  0
 18 19  2  0  0  0  0
 19 20  1  0  0  0  0
 20 21  1  0  0  0  0
 20 22  2  0  0  0  0
 22 23  1  0  0  0  0
M  CHG  1   8   1
M  END
> <Acceptable>
true

> <IC50>
N/A

$$$$
